# generated using pymatgen
data_CuH12C20NO4
_symmetry_space_group_name_H-M   'P 1'
_cell_length_a   24.08700000
_cell_length_b   36.32950000
_cell_length_c   36.32950000
_cell_angle_alpha   90.00000000
_cell_angle_beta   90.00000000
_cell_angle_gamma   90.00000000
_symmetry_Int_Tables_number   1
_chemical_formula_structural   CuH12C20NO4
_chemical_formula_sum   'Cu16 H192 C320 N16 O64'
_cell_volume   31790.80711961
_cell_formula_units_Z   16
loop_
 _symmetry_equiv_pos_site_id
 _symmetry_equiv_pos_as_xyz
  1  'x, y, z'
loop_
 _atom_site_type_symbol
 _atom_site_label
 _atom_site_symmetry_multiplicity
 _atom_site_fract_x
 _atom_site_fract_y
 _atom_site_fract_z
 _atom_site_occupancy
  Cu  Cu0  1  0.00000000  0.00653000  0.68713000  1
  Cu  Cu1  1  0.00000000  0.01118000  0.61507000  1
  Cu  Cu2  1  0.00000000  0.31287000  0.00653000  1
  Cu  Cu3  1  0.00000000  0.38493000  0.01118000  1
  Cu  Cu4  1  0.00000000  0.61507000  0.98882000  1
  Cu  Cu5  1  0.00000000  0.68713000  0.99347000  1
  Cu  Cu6  1  0.00000000  0.98882000  0.38493000  1
  Cu  Cu7  1  0.00000000  0.99347000  0.31287000  1
  Cu  Cu8  1  0.50000000  0.11507000  0.51118000  1
  Cu  Cu9  1  0.50000000  0.18713000  0.50653000  1
  Cu  Cu10  1  0.50000000  0.48882000  0.11507000  1
  Cu  Cu11  1  0.50000000  0.49347000  0.18713000  1
  Cu  Cu12  1  0.50000000  0.50653000  0.81287000  1
  Cu  Cu13  1  0.50000000  0.51118000  0.88493000  1
  Cu  Cu14  1  0.50000000  0.81287000  0.49347000  1
  Cu  Cu15  1  0.50000000  0.88493000  0.48882000  1
  H  H16  1  0.12710000  0.08700000  0.71260000  1
  H  H17  1  0.12710000  0.28740000  0.08700000  1
  H  H18  1  0.12710000  0.71260000  0.91300000  1
  H  H19  1  0.12710000  0.91300000  0.28740000  1
  H  H20  1  0.12790000  0.07080000  0.40930000  1
  H  H21  1  0.12790000  0.40930000  0.92920000  1
  H  H22  1  0.12790000  0.59070000  0.07080000  1
  H  H23  1  0.12790000  0.92920000  0.59070000  1
  H  H24  1  0.12860000  0.07220000  0.29950000  1
  H  H25  1  0.12860000  0.29950000  0.92780000  1
  H  H26  1  0.12860000  0.70050000  0.07220000  1
  H  H27  1  0.12860000  0.92780000  0.70050000  1
  H  H28  1  0.12870000  0.09290000  0.60300000  1
  H  H29  1  0.12870000  0.39700000  0.09290000  1
  H  H30  1  0.12870000  0.60300000  0.90710000  1
  H  H31  1  0.12870000  0.90710000  0.39700000  1
  H  H32  1  0.16980000  0.24650000  0.73090000  1
  H  H33  1  0.16980000  0.26910000  0.24650000  1
  H  H34  1  0.16980000  0.73090000  0.75350000  1
  H  H35  1  0.16980000  0.75350000  0.26910000  1
  H  H36  1  0.17030000  0.20310000  0.68690000  1
  H  H37  1  0.17030000  0.23180000  0.28770000  1
  H  H38  1  0.17030000  0.28770000  0.76820000  1
  H  H39  1  0.17030000  0.31310000  0.20310000  1
  H  H40  1  0.17030000  0.68690000  0.79690000  1
  H  H41  1  0.17030000  0.71230000  0.23180000  1
  H  H42  1  0.17030000  0.76820000  0.71230000  1
  H  H43  1  0.17030000  0.79690000  0.31310000  1
  H  H44  1  0.17300000  0.18850000  0.33500000  1
  H  H45  1  0.17300000  0.33500000  0.81150000  1
  H  H46  1  0.17300000  0.66500000  0.18850000  1
  H  H47  1  0.17300000  0.81150000  0.66500000  1
  H  H48  1  0.19800000  0.11370000  0.41000000  1
  H  H49  1  0.19800000  0.41000000  0.88630000  1
  H  H50  1  0.19800000  0.59000000  0.11370000  1
  H  H51  1  0.19800000  0.88630000  0.59000000  1
  H  H52  1  0.19830000  0.12870000  0.71520000  1
  H  H53  1  0.19830000  0.28480000  0.12870000  1
  H  H54  1  0.19830000  0.71520000  0.87130000  1
  H  H55  1  0.19830000  0.87130000  0.28480000  1
  H  H56  1  0.19900000  0.11540000  0.30050000  1
  H  H57  1  0.19900000  0.13590000  0.60620000  1
  H  H58  1  0.19900000  0.30050000  0.88460000  1
  H  H59  1  0.19900000  0.39380000  0.13590000  1
  H  H60  1  0.19900000  0.60620000  0.86410000  1
  H  H61  1  0.19900000  0.69950000  0.11540000  1
  H  H62  1  0.19900000  0.86410000  0.39380000  1
  H  H63  1  0.19900000  0.88460000  0.69950000  1
  H  H64  1  0.30100000  0.10620000  0.63590000  1
  H  H65  1  0.30100000  0.19950000  0.38460000  1
  H  H66  1  0.30100000  0.36410000  0.10620000  1
  H  H67  1  0.30100000  0.38460000  0.80050000  1
  H  H68  1  0.30100000  0.61540000  0.19950000  1
  H  H69  1  0.30100000  0.63590000  0.89380000  1
  H  H70  1  0.30100000  0.80050000  0.61540000  1
  H  H71  1  0.30100000  0.89380000  0.36410000  1
  H  H72  1  0.30170000  0.21520000  0.62870000  1
  H  H73  1  0.30170000  0.37130000  0.21520000  1
  H  H74  1  0.30170000  0.62870000  0.78480000  1
  H  H75  1  0.30170000  0.78480000  0.37130000  1
  H  H76  1  0.30200000  0.09000000  0.38630000  1
  H  H77  1  0.30200000  0.38630000  0.91000000  1
  H  H78  1  0.30200000  0.61370000  0.09000000  1
  H  H79  1  0.30200000  0.91000000  0.61370000  1
  H  H80  1  0.32700000  0.16500000  0.31150000  1
  H  H81  1  0.32700000  0.31150000  0.83500000  1
  H  H82  1  0.32700000  0.68850000  0.16500000  1
  H  H83  1  0.32700000  0.83500000  0.68850000  1
  H  H84  1  0.32970000  0.18690000  0.70310000  1
  H  H85  1  0.32970000  0.21230000  0.26820000  1
  H  H86  1  0.32970000  0.26820000  0.78770000  1
  H  H87  1  0.32970000  0.29690000  0.18690000  1
  H  H88  1  0.32970000  0.70310000  0.81310000  1
  H  H89  1  0.32970000  0.73180000  0.21230000  1
  H  H90  1  0.32970000  0.78770000  0.73180000  1
  H  H91  1  0.32970000  0.81310000  0.29690000  1
  H  H92  1  0.33020000  0.23090000  0.74650000  1
  H  H93  1  0.33020000  0.25350000  0.23090000  1
  H  H94  1  0.33020000  0.74650000  0.76910000  1
  H  H95  1  0.33020000  0.76910000  0.25350000  1
  H  H96  1  0.37130000  0.10300000  0.59290000  1
  H  H97  1  0.37130000  0.40710000  0.10300000  1
  H  H98  1  0.37130000  0.59290000  0.89700000  1
  H  H99  1  0.37130000  0.89700000  0.40710000  1
  H  H100  1  0.37140000  0.20050000  0.42780000  1
  H  H101  1  0.37140000  0.42780000  0.79950000  1
  H  H102  1  0.37140000  0.57220000  0.20050000  1
  H  H103  1  0.37140000  0.79950000  0.57220000  1
  H  H104  1  0.37210000  0.09070000  0.42920000  1
  H  H105  1  0.37210000  0.42920000  0.90930000  1
  H  H106  1  0.37210000  0.57080000  0.09070000  1
  H  H107  1  0.37210000  0.90930000  0.57080000  1
  H  H108  1  0.37290000  0.21260000  0.58700000  1
  H  H109  1  0.37290000  0.41300000  0.21260000  1
  H  H110  1  0.37290000  0.58700000  0.78740000  1
  H  H111  1  0.37290000  0.78740000  0.41300000  1
  H  H112  1  0.62710000  0.21260000  0.58700000  1
  H  H113  1  0.62710000  0.41300000  0.21260000  1
  H  H114  1  0.62710000  0.58700000  0.78740000  1
  H  H115  1  0.62710000  0.78740000  0.41300000  1
  H  H116  1  0.62790000  0.09070000  0.42920000  1
  H  H117  1  0.62790000  0.42920000  0.90930000  1
  H  H118  1  0.62790000  0.57080000  0.09070000  1
  H  H119  1  0.62790000  0.90930000  0.57080000  1
  H  H120  1  0.62860000  0.20050000  0.42780000  1
  H  H121  1  0.62860000  0.42780000  0.79950000  1
  H  H122  1  0.62860000  0.57220000  0.20050000  1
  H  H123  1  0.62860000  0.79950000  0.57220000  1
  H  H124  1  0.62870000  0.10300000  0.59290000  1
  H  H125  1  0.62870000  0.40710000  0.10300000  1
  H  H126  1  0.62870000  0.59290000  0.89700000  1
  H  H127  1  0.62870000  0.89700000  0.40710000  1
  H  H128  1  0.66980000  0.23090000  0.74650000  1
  H  H129  1  0.66980000  0.25350000  0.23090000  1
  H  H130  1  0.66980000  0.74650000  0.76910000  1
  H  H131  1  0.66980000  0.76910000  0.25350000  1
  H  H132  1  0.67030000  0.18690000  0.70310000  1
  H  H133  1  0.67030000  0.21230000  0.26820000  1
  H  H134  1  0.67030000  0.26820000  0.78770000  1
  H  H135  1  0.67030000  0.29690000  0.18690000  1
  H  H136  1  0.67030000  0.70310000  0.81310000  1
  H  H137  1  0.67030000  0.73180000  0.21230000  1
  H  H138  1  0.67030000  0.78770000  0.73180000  1
  H  H139  1  0.67030000  0.81310000  0.29690000  1
  H  H140  1  0.67300000  0.16500000  0.31150000  1
  H  H141  1  0.67300000  0.31150000  0.83500000  1
  H  H142  1  0.67300000  0.68850000  0.16500000  1
  H  H143  1  0.67300000  0.83500000  0.68850000  1
  H  H144  1  0.69800000  0.09000000  0.38630000  1
  H  H145  1  0.69800000  0.38630000  0.91000000  1
  H  H146  1  0.69800000  0.61370000  0.09000000  1
  H  H147  1  0.69800000  0.91000000  0.61370000  1
  H  H148  1  0.69830000  0.21520000  0.62870000  1
  H  H149  1  0.69830000  0.37130000  0.21520000  1
  H  H150  1  0.69830000  0.62870000  0.78480000  1
  H  H151  1  0.69830000  0.78480000  0.37130000  1
  H  H152  1  0.69900000  0.10620000  0.63590000  1
  H  H153  1  0.69900000  0.19950000  0.38460000  1
  H  H154  1  0.69900000  0.36410000  0.10620000  1
  H  H155  1  0.69900000  0.38460000  0.80050000  1
  H  H156  1  0.69900000  0.61540000  0.19950000  1
  H  H157  1  0.69900000  0.63590000  0.89380000  1
  H  H158  1  0.69900000  0.80050000  0.61540000  1
  H  H159  1  0.69900000  0.89380000  0.36410000  1
  H  H160  1  0.80100000  0.11540000  0.30050000  1
  H  H161  1  0.80100000  0.13590000  0.60620000  1
  H  H162  1  0.80100000  0.30050000  0.88460000  1
  H  H163  1  0.80100000  0.39380000  0.13590000  1
  H  H164  1  0.80100000  0.60620000  0.86410000  1
  H  H165  1  0.80100000  0.69950000  0.11540000  1
  H  H166  1  0.80100000  0.86410000  0.39380000  1
  H  H167  1  0.80100000  0.88460000  0.69950000  1
  H  H168  1  0.80170000  0.12870000  0.71520000  1
  H  H169  1  0.80170000  0.28480000  0.12870000  1
  H  H170  1  0.80170000  0.71520000  0.87130000  1
  H  H171  1  0.80170000  0.87130000  0.28480000  1
  H  H172  1  0.80200000  0.11370000  0.41000000  1
  H  H173  1  0.80200000  0.41000000  0.88630000  1
  H  H174  1  0.80200000  0.59000000  0.11370000  1
  H  H175  1  0.80200000  0.88630000  0.59000000  1
  H  H176  1  0.82700000  0.18850000  0.33500000  1
  H  H177  1  0.82700000  0.33500000  0.81150000  1
  H  H178  1  0.82700000  0.66500000  0.18850000  1
  H  H179  1  0.82700000  0.81150000  0.66500000  1
  H  H180  1  0.82970000  0.20310000  0.68690000  1
  H  H181  1  0.82970000  0.23180000  0.28770000  1
  H  H182  1  0.82970000  0.28770000  0.76820000  1
  H  H183  1  0.82970000  0.31310000  0.20310000  1
  H  H184  1  0.82970000  0.68690000  0.79690000  1
  H  H185  1  0.82970000  0.71230000  0.23180000  1
  H  H186  1  0.82970000  0.76820000  0.71230000  1
  H  H187  1  0.82970000  0.79690000  0.31310000  1
  H  H188  1  0.83020000  0.24650000  0.73090000  1
  H  H189  1  0.83020000  0.26910000  0.24650000  1
  H  H190  1  0.83020000  0.73090000  0.75350000  1
  H  H191  1  0.83020000  0.75350000  0.26910000  1
  H  H192  1  0.87130000  0.09290000  0.60300000  1
  H  H193  1  0.87130000  0.39700000  0.09290000  1
  H  H194  1  0.87130000  0.60300000  0.90710000  1
  H  H195  1  0.87130000  0.90710000  0.39700000  1
  H  H196  1  0.87140000  0.07220000  0.29950000  1
  H  H197  1  0.87140000  0.29950000  0.92780000  1
  H  H198  1  0.87140000  0.70050000  0.07220000  1
  H  H199  1  0.87140000  0.92780000  0.70050000  1
  H  H200  1  0.87210000  0.07080000  0.40930000  1
  H  H201  1  0.87210000  0.40930000  0.92920000  1
  H  H202  1  0.87210000  0.59070000  0.07080000  1
  H  H203  1  0.87210000  0.92920000  0.59070000  1
  H  H204  1  0.87290000  0.08700000  0.71260000  1
  H  H205  1  0.87290000  0.28740000  0.08700000  1
  H  H206  1  0.87290000  0.71260000  0.91300000  1
  H  H207  1  0.87290000  0.91300000  0.28740000  1
  C  C208  1  0.07517000  0.05745000  0.65538000  1
  C  C209  1  0.07517000  0.34462000  0.05745000  1
  C  C210  1  0.07517000  0.65538000  0.94255000  1
  C  C211  1  0.07517000  0.94255000  0.34462000  1
  C  C212  1  0.07552000  0.03950000  0.35362000  1
  C  C213  1  0.07552000  0.35362000  0.96050000  1
  C  C214  1  0.07552000  0.64638000  0.03950000  1
  C  C215  1  0.07552000  0.96050000  0.64638000  1
  C  C216  1  0.12012000  0.08538000  0.65755000  1
  C  C217  1  0.12012000  0.34245000  0.08538000  1
  C  C218  1  0.12012000  0.65755000  0.91462000  1
  C  C219  1  0.12012000  0.91462000  0.34245000  1
  C  C220  1  0.12076000  0.06687000  0.35403000  1
  C  C221  1  0.12076000  0.35403000  0.93313000  1
  C  C222  1  0.12076000  0.64597000  0.06687000  1
  C  C223  1  0.12076000  0.93313000  0.64597000  1
  C  C224  1  0.14158000  0.09663000  0.69090000  1
  C  C225  1  0.14158000  0.30910000  0.09663000  1
  C  C226  1  0.14158000  0.69090000  0.90337000  1
  C  C227  1  0.14158000  0.90337000  0.30910000  1
  C  C228  1  0.14212000  0.07965000  0.38724000  1
  C  C229  1  0.14212000  0.38724000  0.92035000  1
  C  C230  1  0.14212000  0.61276000  0.07965000  1
  C  C231  1  0.14212000  0.92035000  0.61276000  1
  C  C232  1  0.14223000  0.10021000  0.62581000  1
  C  C233  1  0.14223000  0.37419000  0.10021000  1
  C  C234  1  0.14223000  0.62581000  0.89979000  1
  C  C235  1  0.14223000  0.89979000  0.37419000  1
  C  C236  1  0.14240000  0.08040000  0.32191000  1
  C  C237  1  0.14240000  0.32191000  0.91960000  1
  C  C238  1  0.14240000  0.67809000  0.08040000  1
  C  C239  1  0.14240000  0.91960000  0.67809000  1
  C  C240  1  0.18390000  0.12173000  0.69245000  1
  C  C241  1  0.18390000  0.30755000  0.12173000  1
  C  C242  1  0.18390000  0.69245000  0.87827000  1
  C  C243  1  0.18390000  0.87827000  0.30755000  1
  C  C244  1  0.18424000  0.10533000  0.38764000  1
  C  C245  1  0.18424000  0.38764000  0.89467000  1
  C  C246  1  0.18424000  0.61236000  0.10533000  1
  C  C247  1  0.18424000  0.89467000  0.61236000  1
  C  C248  1  0.18465000  0.12595000  0.62782000  1
  C  C249  1  0.18465000  0.37218000  0.12595000  1
  C  C250  1  0.18465000  0.62782000  0.87405000  1
  C  C251  1  0.18465000  0.87405000  0.37218000  1
  C  C252  1  0.18481000  0.10631000  0.32254000  1
  C  C253  1  0.18481000  0.32254000  0.89369000  1
  C  C254  1  0.18481000  0.67746000  0.10631000  1
  C  C255  1  0.18481000  0.89369000  0.67746000  1
  C  C256  1  0.20301000  0.23466000  0.72542000  1
  C  C257  1  0.20301000  0.27458000  0.23466000  1
  C  C258  1  0.20301000  0.72542000  0.76534000  1
  C  C259  1  0.20301000  0.76534000  0.27458000  1
  C  C260  1  0.20317000  0.20857000  0.69914000  1
  C  C261  1  0.20317000  0.30086000  0.20857000  1
  C  C262  1  0.20317000  0.69914000  0.79143000  1
  C  C263  1  0.20317000  0.79143000  0.30086000  1
  C  C264  1  0.20318000  0.21933000  0.29272000  1
  C  C265  1  0.20318000  0.29272000  0.78067000  1
  C  C266  1  0.20318000  0.70728000  0.21933000  1
  C  C267  1  0.20318000  0.78067000  0.70728000  1
  C  C268  1  0.20452000  0.19249000  0.32078000  1
  C  C269  1  0.20452000  0.32078000  0.80751000  1
  C  C270  1  0.20452000  0.67922000  0.19249000  1
  C  C271  1  0.20452000  0.80751000  0.67922000  1
  C  C272  1  0.20551000  0.13690000  0.66042000  1
  C  C273  1  0.20551000  0.33958000  0.13690000  1
  C  C274  1  0.20551000  0.66042000  0.86310000  1
  C  C275  1  0.20551000  0.86310000  0.33958000  1
  C  C276  1  0.20599000  0.11854000  0.35556000  1
  C  C277  1  0.20599000  0.35556000  0.88146000  1
  C  C278  1  0.20599000  0.64444000  0.11854000  1
  C  C279  1  0.20599000  0.88146000  0.64444000  1
  C  C280  1  0.25000000  0.17273000  0.32727000  1
  C  C281  1  0.25000000  0.18998000  0.68998000  1
  C  C282  1  0.25000000  0.22697000  0.27303000  1
  C  C283  1  0.25000000  0.24457000  0.74457000  1
  C  C284  1  0.25000000  0.25543000  0.24457000  1
  C  C285  1  0.25000000  0.27303000  0.77303000  1
  C  C286  1  0.25000000  0.31002000  0.18998000  1
  C  C287  1  0.25000000  0.32727000  0.82727000  1
  C  C288  1  0.25000000  0.67273000  0.17273000  1
  C  C289  1  0.25000000  0.68998000  0.81002000  1
  C  C290  1  0.25000000  0.72697000  0.22697000  1
  C  C291  1  0.25000000  0.74457000  0.75543000  1
  C  C292  1  0.25000000  0.75543000  0.25543000  1
  C  C293  1  0.25000000  0.77303000  0.72697000  1
  C  C294  1  0.25000000  0.81002000  0.31002000  1
  C  C295  1  0.25000000  0.82727000  0.67273000  1
  C  C296  1  0.29401000  0.14444000  0.38146000  1
  C  C297  1  0.29401000  0.38146000  0.85556000  1
  C  C298  1  0.29401000  0.61854000  0.14444000  1
  C  C299  1  0.29401000  0.85556000  0.61854000  1
  C  C300  1  0.29449000  0.16042000  0.63690000  1
  C  C301  1  0.29449000  0.36310000  0.16042000  1
  C  C302  1  0.29449000  0.63690000  0.83958000  1
  C  C303  1  0.29449000  0.83958000  0.36310000  1
  C  C304  1  0.29548000  0.17922000  0.30751000  1
  C  C305  1  0.29548000  0.30751000  0.82078000  1
  C  C306  1  0.29548000  0.69249000  0.17922000  1
  C  C307  1  0.29548000  0.82078000  0.69249000  1
  C  C308  1  0.29682000  0.20728000  0.28067000  1
  C  C309  1  0.29682000  0.28067000  0.79272000  1
  C  C310  1  0.29682000  0.71933000  0.20728000  1
  C  C311  1  0.29682000  0.79272000  0.71933000  1
  C  C312  1  0.29683000  0.19914000  0.70857000  1
  C  C313  1  0.29683000  0.29143000  0.19914000  1
  C  C314  1  0.29683000  0.70857000  0.80086000  1
  C  C315  1  0.29683000  0.80086000  0.29143000  1
  C  C316  1  0.29699000  0.22542000  0.73466000  1
  C  C317  1  0.29699000  0.26534000  0.22542000  1
  C  C318  1  0.29699000  0.73466000  0.77458000  1
  C  C319  1  0.29699000  0.77458000  0.26534000  1
  C  C320  1  0.31519000  0.17746000  0.39369000  1
  C  C321  1  0.31519000  0.39369000  0.82254000  1
  C  C322  1  0.31519000  0.60631000  0.17746000  1
  C  C323  1  0.31519000  0.82254000  0.60631000  1
  C  C324  1  0.31535000  0.12782000  0.62595000  1
  C  C325  1  0.31535000  0.37405000  0.12782000  1
  C  C326  1  0.31535000  0.62595000  0.87218000  1
  C  C327  1  0.31535000  0.87218000  0.37405000  1
  C  C328  1  0.31576000  0.11236000  0.39467000  1
  C  C329  1  0.31576000  0.39467000  0.88764000  1
  C  C330  1  0.31576000  0.60533000  0.11236000  1
  C  C331  1  0.31576000  0.88764000  0.60533000  1
  C  C332  1  0.31610000  0.19245000  0.62173000  1
  C  C333  1  0.31610000  0.37827000  0.19245000  1
  C  C334  1  0.31610000  0.62173000  0.80755000  1
  C  C335  1  0.31610000  0.80755000  0.37827000  1
  C  C336  1  0.35760000  0.17809000  0.41960000  1
  C  C337  1  0.35760000  0.41960000  0.82191000  1
  C  C338  1  0.35760000  0.58040000  0.17809000  1
  C  C339  1  0.35760000  0.82191000  0.58040000  1
  C  C340  1  0.35777000  0.12581000  0.60021000  1
  C  C341  1  0.35777000  0.39979000  0.12581000  1
  C  C342  1  0.35777000  0.60021000  0.87419000  1
  C  C343  1  0.35777000  0.87419000  0.39979000  1
  C  C344  1  0.35788000  0.11276000  0.42035000  1
  C  C345  1  0.35788000  0.42035000  0.88724000  1
  C  C346  1  0.35788000  0.57965000  0.11276000  1
  C  C347  1  0.35788000  0.88724000  0.57965000  1
  C  C348  1  0.35842000  0.19090000  0.59663000  1
  C  C349  1  0.35842000  0.40337000  0.19090000  1
  C  C350  1  0.35842000  0.59663000  0.80910000  1
  C  C351  1  0.35842000  0.80910000  0.40337000  1
  C  C352  1  0.37924000  0.14597000  0.43313000  1
  C  C353  1  0.37924000  0.43313000  0.85403000  1
  C  C354  1  0.37924000  0.56687000  0.14597000  1
  C  C355  1  0.37924000  0.85403000  0.56687000  1
  C  C356  1  0.37988000  0.15755000  0.58538000  1
  C  C357  1  0.37988000  0.41462000  0.15755000  1
  C  C358  1  0.37988000  0.58538000  0.84245000  1
  C  C359  1  0.37988000  0.84245000  0.41462000  1
  C  C360  1  0.42448000  0.14638000  0.46050000  1
  C  C361  1  0.42448000  0.46050000  0.85362000  1
  C  C362  1  0.42448000  0.53950000  0.14638000  1
  C  C363  1  0.42448000  0.85362000  0.53950000  1
  C  C364  1  0.42483000  0.15538000  0.55745000  1
  C  C365  1  0.42483000  0.44255000  0.15538000  1
  C  C366  1  0.42483000  0.55745000  0.84462000  1
  C  C367  1  0.42483000  0.84462000  0.44255000  1
  C  C368  1  0.57517000  0.15538000  0.55745000  1
  C  C369  1  0.57517000  0.44255000  0.15538000  1
  C  C370  1  0.57517000  0.55745000  0.84462000  1
  C  C371  1  0.57517000  0.84462000  0.44255000  1
  C  C372  1  0.57552000  0.14638000  0.46050000  1
  C  C373  1  0.57552000  0.46050000  0.85362000  1
  C  C374  1  0.57552000  0.53950000  0.14638000  1
  C  C375  1  0.57552000  0.85362000  0.53950000  1
  C  C376  1  0.62012000  0.15755000  0.58538000  1
  C  C377  1  0.62012000  0.41462000  0.15755000  1
  C  C378  1  0.62012000  0.58538000  0.84245000  1
  C  C379  1  0.62012000  0.84245000  0.41462000  1
  C  C380  1  0.62076000  0.14597000  0.43313000  1
  C  C381  1  0.62076000  0.43313000  0.85403000  1
  C  C382  1  0.62076000  0.56687000  0.14597000  1
  C  C383  1  0.62076000  0.85403000  0.56687000  1
  C  C384  1  0.64158000  0.19090000  0.59663000  1
  C  C385  1  0.64158000  0.40337000  0.19090000  1
  C  C386  1  0.64158000  0.59663000  0.80910000  1
  C  C387  1  0.64158000  0.80910000  0.40337000  1
  C  C388  1  0.64212000  0.11276000  0.42035000  1
  C  C389  1  0.64212000  0.42035000  0.88724000  1
  C  C390  1  0.64212000  0.57965000  0.11276000  1
  C  C391  1  0.64212000  0.88724000  0.57965000  1
  C  C392  1  0.64223000  0.12581000  0.60021000  1
  C  C393  1  0.64223000  0.39979000  0.12581000  1
  C  C394  1  0.64223000  0.60021000  0.87419000  1
  C  C395  1  0.64223000  0.87419000  0.39979000  1
  C  C396  1  0.64240000  0.17809000  0.41960000  1
  C  C397  1  0.64240000  0.41960000  0.82191000  1
  C  C398  1  0.64240000  0.58040000  0.17809000  1
  C  C399  1  0.64240000  0.82191000  0.58040000  1
  C  C400  1  0.68390000  0.19245000  0.62173000  1
  C  C401  1  0.68390000  0.37827000  0.19245000  1
  C  C402  1  0.68390000  0.62173000  0.80755000  1
  C  C403  1  0.68390000  0.80755000  0.37827000  1
  C  C404  1  0.68424000  0.11236000  0.39467000  1
  C  C405  1  0.68424000  0.39467000  0.88764000  1
  C  C406  1  0.68424000  0.60533000  0.11236000  1
  C  C407  1  0.68424000  0.88764000  0.60533000  1
  C  C408  1  0.68465000  0.12782000  0.62595000  1
  C  C409  1  0.68465000  0.37405000  0.12782000  1
  C  C410  1  0.68465000  0.62595000  0.87218000  1
  C  C411  1  0.68465000  0.87218000  0.37405000  1
  C  C412  1  0.68481000  0.17746000  0.39369000  1
  C  C413  1  0.68481000  0.39369000  0.82254000  1
  C  C414  1  0.68481000  0.60631000  0.17746000  1
  C  C415  1  0.68481000  0.82254000  0.60631000  1
  C  C416  1  0.70301000  0.22542000  0.73466000  1
  C  C417  1  0.70301000  0.26534000  0.22542000  1
  C  C418  1  0.70301000  0.73466000  0.77458000  1
  C  C419  1  0.70301000  0.77458000  0.26534000  1
  C  C420  1  0.70317000  0.19914000  0.70857000  1
  C  C421  1  0.70317000  0.29143000  0.19914000  1
  C  C422  1  0.70317000  0.70857000  0.80086000  1
  C  C423  1  0.70317000  0.80086000  0.29143000  1
  C  C424  1  0.70318000  0.20728000  0.28067000  1
  C  C425  1  0.70318000  0.28067000  0.79272000  1
  C  C426  1  0.70318000  0.71933000  0.20728000  1
  C  C427  1  0.70318000  0.79272000  0.71933000  1
  C  C428  1  0.70452000  0.17922000  0.30751000  1
  C  C429  1  0.70452000  0.30751000  0.82078000  1
  C  C430  1  0.70452000  0.69249000  0.17922000  1
  C  C431  1  0.70452000  0.82078000  0.69249000  1
  C  C432  1  0.70551000  0.16042000  0.63690000  1
  C  C433  1  0.70551000  0.36310000  0.16042000  1
  C  C434  1  0.70551000  0.63690000  0.83958000  1
  C  C435  1  0.70551000  0.83958000  0.36310000  1
  C  C436  1  0.70599000  0.14444000  0.38146000  1
  C  C437  1  0.70599000  0.38146000  0.85556000  1
  C  C438  1  0.70599000  0.61854000  0.14444000  1
  C  C439  1  0.70599000  0.85556000  0.61854000  1
  C  C440  1  0.75000000  0.17273000  0.32727000  1
  C  C441  1  0.75000000  0.18998000  0.68998000  1
  C  C442  1  0.75000000  0.22697000  0.27303000  1
  C  C443  1  0.75000000  0.24457000  0.74457000  1
  C  C444  1  0.75000000  0.25543000  0.24457000  1
  C  C445  1  0.75000000  0.27303000  0.77303000  1
  C  C446  1  0.75000000  0.31002000  0.18998000  1
  C  C447  1  0.75000000  0.32727000  0.82727000  1
  C  C448  1  0.75000000  0.67273000  0.17273000  1
  C  C449  1  0.75000000  0.68998000  0.81002000  1
  C  C450  1  0.75000000  0.72697000  0.22697000  1
  C  C451  1  0.75000000  0.74457000  0.75543000  1
  C  C452  1  0.75000000  0.75543000  0.25543000  1
  C  C453  1  0.75000000  0.77303000  0.72697000  1
  C  C454  1  0.75000000  0.81002000  0.31002000  1
  C  C455  1  0.75000000  0.82727000  0.67273000  1
  C  C456  1  0.79401000  0.11854000  0.35556000  1
  C  C457  1  0.79401000  0.35556000  0.88146000  1
  C  C458  1  0.79401000  0.64444000  0.11854000  1
  C  C459  1  0.79401000  0.88146000  0.64444000  1
  C  C460  1  0.79449000  0.13690000  0.66042000  1
  C  C461  1  0.79449000  0.33958000  0.13690000  1
  C  C462  1  0.79449000  0.66042000  0.86310000  1
  C  C463  1  0.79449000  0.86310000  0.33958000  1
  C  C464  1  0.79548000  0.19249000  0.32078000  1
  C  C465  1  0.79548000  0.32078000  0.80751000  1
  C  C466  1  0.79548000  0.67922000  0.19249000  1
  C  C467  1  0.79548000  0.80751000  0.67922000  1
  C  C468  1  0.79682000  0.21933000  0.29272000  1
  C  C469  1  0.79682000  0.29272000  0.78067000  1
  C  C470  1  0.79682000  0.70728000  0.21933000  1
  C  C471  1  0.79682000  0.78067000  0.70728000  1
  C  C472  1  0.79683000  0.20857000  0.69914000  1
  C  C473  1  0.79683000  0.30086000  0.20857000  1
  C  C474  1  0.79683000  0.69914000  0.79143000  1
  C  C475  1  0.79683000  0.79143000  0.30086000  1
  C  C476  1  0.79699000  0.23466000  0.72542000  1
  C  C477  1  0.79699000  0.27458000  0.23466000  1
  C  C478  1  0.79699000  0.72542000  0.76534000  1
  C  C479  1  0.79699000  0.76534000  0.27458000  1
  C  C480  1  0.81519000  0.10631000  0.32254000  1
  C  C481  1  0.81519000  0.32254000  0.89369000  1
  C  C482  1  0.81519000  0.67746000  0.10631000  1
  C  C483  1  0.81519000  0.89369000  0.67746000  1
  C  C484  1  0.81535000  0.12595000  0.62782000  1
  C  C485  1  0.81535000  0.37218000  0.12595000  1
  C  C486  1  0.81535000  0.62782000  0.87405000  1
  C  C487  1  0.81535000  0.87405000  0.37218000  1
  C  C488  1  0.81576000  0.10533000  0.38764000  1
  C  C489  1  0.81576000  0.38764000  0.89467000  1
  C  C490  1  0.81576000  0.61236000  0.10533000  1
  C  C491  1  0.81576000  0.89467000  0.61236000  1
  C  C492  1  0.81610000  0.12173000  0.69245000  1
  C  C493  1  0.81610000  0.30755000  0.12173000  1
  C  C494  1  0.81610000  0.69245000  0.87827000  1
  C  C495  1  0.81610000  0.87827000  0.30755000  1
  C  C496  1  0.85760000  0.08040000  0.32191000  1
  C  C497  1  0.85760000  0.32191000  0.91960000  1
  C  C498  1  0.85760000  0.67809000  0.08040000  1
  C  C499  1  0.85760000  0.91960000  0.67809000  1
  C  C500  1  0.85777000  0.10021000  0.62581000  1
  C  C501  1  0.85777000  0.37419000  0.10021000  1
  C  C502  1  0.85777000  0.62581000  0.89979000  1
  C  C503  1  0.85777000  0.89979000  0.37419000  1
  C  C504  1  0.85788000  0.07965000  0.38724000  1
  C  C505  1  0.85788000  0.38724000  0.92035000  1
  C  C506  1  0.85788000  0.61276000  0.07965000  1
  C  C507  1  0.85788000  0.92035000  0.61276000  1
  C  C508  1  0.85842000  0.09663000  0.69090000  1
  C  C509  1  0.85842000  0.30910000  0.09663000  1
  C  C510  1  0.85842000  0.69090000  0.90337000  1
  C  C511  1  0.85842000  0.90337000  0.30910000  1
  C  C512  1  0.87924000  0.06687000  0.35403000  1
  C  C513  1  0.87924000  0.35403000  0.93313000  1
  C  C514  1  0.87924000  0.64597000  0.06687000  1
  C  C515  1  0.87924000  0.93313000  0.64597000  1
  C  C516  1  0.87988000  0.08538000  0.65755000  1
  C  C517  1  0.87988000  0.34245000  0.08538000  1
  C  C518  1  0.87988000  0.65755000  0.91462000  1
  C  C519  1  0.87988000  0.91462000  0.34245000  1
  C  C520  1  0.92448000  0.03950000  0.35362000  1
  C  C521  1  0.92448000  0.35362000  0.96050000  1
  C  C522  1  0.92448000  0.64638000  0.03950000  1
  C  C523  1  0.92448000  0.96050000  0.64638000  1
  C  C524  1  0.92483000  0.05745000  0.65538000  1
  C  C525  1  0.92483000  0.34462000  0.05745000  1
  C  C526  1  0.92483000  0.65538000  0.94255000  1
  C  C527  1  0.92483000  0.94255000  0.34462000  1
  N  N528  1  0.25000000  0.14484000  0.35516000  1
  N  N529  1  0.25000000  0.16249000  0.66249000  1
  N  N530  1  0.25000000  0.33751000  0.16249000  1
  N  N531  1  0.25000000  0.35516000  0.85516000  1
  N  N532  1  0.25000000  0.64484000  0.14484000  1
  N  N533  1  0.25000000  0.66249000  0.83751000  1
  N  N534  1  0.25000000  0.83751000  0.33751000  1
  N  N535  1  0.25000000  0.85516000  0.64484000  1
  N  N536  1  0.75000000  0.14484000  0.35516000  1
  N  N537  1  0.75000000  0.16249000  0.66249000  1
  N  N538  1  0.75000000  0.33751000  0.16249000  1
  N  N539  1  0.75000000  0.35516000  0.85516000  1
  N  N540  1  0.75000000  0.64484000  0.14484000  1
  N  N541  1  0.75000000  0.66249000  0.83751000  1
  N  N542  1  0.75000000  0.83751000  0.33751000  1
  N  N543  1  0.75000000  0.85516000  0.64484000  1
  O  O544  1  0.05759000  0.04470000  0.68537000  1
  O  O545  1  0.05759000  0.31463000  0.04470000  1
  O  O546  1  0.05759000  0.68537000  0.95530000  1
  O  O547  1  0.05759000  0.95530000  0.31463000  1
  O  O548  1  0.05769000  0.03044000  0.32197000  1
  O  O549  1  0.05769000  0.32197000  0.96956000  1
  O  O550  1  0.05769000  0.67803000  0.03044000  1
  O  O551  1  0.05769000  0.96956000  0.67803000  1
  O  O552  1  0.05789000  0.02682000  0.38314000  1
  O  O553  1  0.05789000  0.38314000  0.97318000  1
  O  O554  1  0.05789000  0.61686000  0.02682000  1
  O  O555  1  0.05789000  0.97318000  0.61686000  1
  O  O556  1  0.05798000  0.04816000  0.62440000  1
  O  O557  1  0.05798000  0.37560000  0.04816000  1
  O  O558  1  0.05798000  0.62440000  0.95184000  1
  O  O559  1  0.05798000  0.95184000  0.37560000  1
  O  O560  1  0.44202000  0.12440000  0.54816000  1
  O  O561  1  0.44202000  0.45184000  0.12440000  1
  O  O562  1  0.44202000  0.54816000  0.87560000  1
  O  O563  1  0.44202000  0.87560000  0.45184000  1
  O  O564  1  0.44211000  0.11686000  0.47318000  1
  O  O565  1  0.44211000  0.47318000  0.88314000  1
  O  O566  1  0.44211000  0.52682000  0.11686000  1
  O  O567  1  0.44211000  0.88314000  0.52682000  1
  O  O568  1  0.44231000  0.17803000  0.46956000  1
  O  O569  1  0.44231000  0.46956000  0.82197000  1
  O  O570  1  0.44231000  0.53044000  0.17803000  1
  O  O571  1  0.44231000  0.82197000  0.53044000  1
  O  O572  1  0.44241000  0.18537000  0.54470000  1
  O  O573  1  0.44241000  0.45530000  0.18537000  1
  O  O574  1  0.44241000  0.54470000  0.81463000  1
  O  O575  1  0.44241000  0.81463000  0.45530000  1
  O  O576  1  0.55759000  0.18537000  0.54470000  1
  O  O577  1  0.55759000  0.45530000  0.18537000  1
  O  O578  1  0.55759000  0.54470000  0.81463000  1
  O  O579  1  0.55759000  0.81463000  0.45530000  1
  O  O580  1  0.55769000  0.17803000  0.46956000  1
  O  O581  1  0.55769000  0.46956000  0.82197000  1
  O  O582  1  0.55769000  0.53044000  0.17803000  1
  O  O583  1  0.55769000  0.82197000  0.53044000  1
  O  O584  1  0.55789000  0.11686000  0.47318000  1
  O  O585  1  0.55789000  0.47318000  0.88314000  1
  O  O586  1  0.55789000  0.52682000  0.11686000  1
  O  O587  1  0.55789000  0.88314000  0.52682000  1
  O  O588  1  0.55798000  0.12440000  0.54816000  1
  O  O589  1  0.55798000  0.45184000  0.12440000  1
  O  O590  1  0.55798000  0.54816000  0.87560000  1
  O  O591  1  0.55798000  0.87560000  0.45184000  1
  O  O592  1  0.94202000  0.04816000  0.62440000  1
  O  O593  1  0.94202000  0.37560000  0.04816000  1
  O  O594  1  0.94202000  0.62440000  0.95184000  1
  O  O595  1  0.94202000  0.95184000  0.37560000  1
  O  O596  1  0.94211000  0.02682000  0.38314000  1
  O  O597  1  0.94211000  0.38314000  0.97318000  1
  O  O598  1  0.94211000  0.61686000  0.02682000  1
  O  O599  1  0.94211000  0.97318000  0.61686000  1
  O  O600  1  0.94231000  0.03044000  0.32197000  1
  O  O601  1  0.94231000  0.32197000  0.96956000  1
  O  O602  1  0.94231000  0.67803000  0.03044000  1
  O  O603  1  0.94231000  0.96956000  0.67803000  1
  O  O604  1  0.94241000  0.04470000  0.68537000  1
  O  O605  1  0.94241000  0.31463000  0.04470000  1
  O  O606  1  0.94241000  0.68537000  0.95530000  1
  O  O607  1  0.94241000  0.95530000  0.31463000  1
