# generated using pymatgen
data_CeCu3(CO2)9
_symmetry_space_group_name_H-M   'P 1'
_cell_length_a   17.61800000
_cell_length_b   17.61800000
_cell_length_c   17.61800000
_cell_angle_alpha   90.00000000
_cell_angle_beta   90.00000000
_cell_angle_gamma   90.00000000
_symmetry_Int_Tables_number   1
_chemical_formula_structural   CeCu3(CO2)9
_chemical_formula_sum   'Ce4 Cu12 C36 O72'
_cell_volume   5468.52015303
_cell_formula_units_Z   4
loop_
 _symmetry_equiv_pos_site_id
 _symmetry_equiv_pos_as_xyz
  1  'x, y, z'
loop_
 _atom_site_type_symbol
 _atom_site_label
 _atom_site_symmetry_multiplicity
 _atom_site_fract_x
 _atom_site_fract_y
 _atom_site_fract_z
 _atom_site_occupancy
  Ce  Ce0  1  0.10274000  0.60274000  0.89726000  1
  Ce  Ce1  1  0.39726000  0.39726000  0.39726000  1
  Ce  Ce2  1  0.60274000  0.89726000  0.10274000  1
  Ce  Ce3  1  0.89726000  0.10274000  0.60274000  1
  Cu  Cu4  1  0.00002000  0.90796000  0.84945000  1
  Cu  Cu5  1  0.09204000  0.34945000  0.49998000  1
  Cu  Cu6  1  0.15055000  0.50002000  0.59204000  1
  Cu  Cu7  1  0.34945000  0.49998000  0.09204000  1
  Cu  Cu8  1  0.40796000  0.65055000  0.99998000  1
  Cu  Cu9  1  0.49998000  0.09204000  0.34945000  1
  Cu  Cu10  1  0.50002000  0.59204000  0.15055000  1
  Cu  Cu11  1  0.59204000  0.15055000  0.50002000  1
  Cu  Cu12  1  0.65055000  0.99998000  0.40796000  1
  Cu  Cu13  1  0.84945000  0.00002000  0.90796000  1
  Cu  Cu14  1  0.90796000  0.84945000  0.00002000  1
  Cu  Cu15  1  0.99998000  0.40796000  0.65055000  1
  C  C16  1  0.00310000  0.51300000  0.75920000  1
  C  C17  1  0.00960000  0.76590000  0.91320000  1
  C  C18  1  0.01300000  0.74080000  0.99690000  1
  C  C19  1  0.08680000  0.50960000  0.73410000  1
  C  C20  1  0.08910000  0.79160000  0.88640000  1
  C  C21  1  0.11360000  0.58910000  0.70840000  1
  C  C22  1  0.20840000  0.38640000  0.41090000  1
  C  C23  1  0.23410000  0.41320000  0.49040000  1
  C  C24  1  0.24080000  0.50310000  0.98700000  1
  C  C25  1  0.25920000  0.49690000  0.48700000  1
  C  C26  1  0.26590000  0.58680000  0.99040000  1
  C  C27  1  0.29160000  0.61360000  0.91090000  1
  C  C28  1  0.38640000  0.41090000  0.20840000  1
  C  C29  1  0.41090000  0.20840000  0.38640000  1
  C  C30  1  0.41320000  0.49040000  0.23410000  1
  C  C31  1  0.48700000  0.25920000  0.49690000  1
  C  C32  1  0.49040000  0.23410000  0.41320000  1
  C  C33  1  0.49690000  0.48700000  0.25920000  1
  C  C34  1  0.50310000  0.98700000  0.24080000  1
  C  C35  1  0.50960000  0.73410000  0.08680000  1
  C  C36  1  0.51300000  0.75920000  0.00310000  1
  C  C37  1  0.58680000  0.99040000  0.26590000  1
  C  C38  1  0.58910000  0.70840000  0.11360000  1
  C  C39  1  0.61360000  0.91090000  0.29160000  1
  C  C40  1  0.70840000  0.11360000  0.58910000  1
  C  C41  1  0.73410000  0.08680000  0.50960000  1
  C  C42  1  0.74080000  0.99690000  0.01300000  1
  C  C43  1  0.75920000  0.00310000  0.51300000  1
  C  C44  1  0.76590000  0.91320000  0.00960000  1
  C  C45  1  0.79160000  0.88640000  0.08910000  1
  C  C46  1  0.88640000  0.08910000  0.79160000  1
  C  C47  1  0.91090000  0.29160000  0.61360000  1
  C  C48  1  0.91320000  0.00960000  0.76590000  1
  C  C49  1  0.98700000  0.24080000  0.50310000  1
  C  C50  1  0.99040000  0.26590000  0.58680000  1
  C  C51  1  0.99690000  0.01300000  0.74080000  1
  O  O52  1  0.00782000  0.20070000  0.62880000  1
  O  O53  1  0.00940000  0.04940000  0.68100000  1
  O  O54  1  0.01830000  0.28150000  0.45430000  1
  O  O55  1  0.04404000  0.32295000  0.59644000  1
  O  O56  1  0.04570000  0.98170000  0.78150000  1
  O  O57  1  0.04940000  0.68100000  0.00940000  1
  O  O58  1  0.09644000  0.45596000  0.67705000  1
  O  O59  1  0.09681000  0.85850000  0.86720000  1
  O  O60  1  0.11260000  0.63944000  0.75713000  1
  O  O61  1  0.12880000  0.49218000  0.79930000  1
  O  O62  1  0.13280000  0.59681000  0.64150000  1
  O  O63  1  0.13944000  0.74287000  0.88740000  1
  O  O64  1  0.14150000  0.36720000  0.40319000  1
  O  O65  1  0.17705000  0.40356000  0.54404000  1
  O  O66  1  0.18100000  0.49060000  0.95060000  1
  O  O67  1  0.20070000  0.62880000  0.00782000  1
  O  O68  1  0.21850000  0.54570000  0.51830000  1
  O  O69  1  0.24287000  0.61260000  0.86056000  1
  O  O70  1  0.25713000  0.38740000  0.36056000  1
  O  O71  1  0.28150000  0.45430000  0.01830000  1
  O  O72  1  0.29930000  0.37120000  0.50782000  1
  O  O73  1  0.31900000  0.50940000  0.45060000  1
  O  O74  1  0.32295000  0.59644000  0.04404000  1
  O  O75  1  0.35850000  0.63280000  0.90319000  1
  O  O76  1  0.36056000  0.25713000  0.38740000  1
  O  O77  1  0.36720000  0.40319000  0.14150000  1
  O  O78  1  0.37120000  0.50782000  0.29930000  1
  O  O79  1  0.38740000  0.36056000  0.25713000  1
  O  O80  1  0.40319000  0.14150000  0.36720000  1
  O  O81  1  0.40356000  0.54404000  0.17705000  1
  O  O82  1  0.45060000  0.31900000  0.50940000  1
  O  O83  1  0.45430000  0.01830000  0.28150000  1
  O  O84  1  0.45596000  0.67705000  0.09644000  1
  O  O85  1  0.48170000  0.71850000  0.95430000  1
  O  O86  1  0.49060000  0.95060000  0.18100000  1
  O  O87  1  0.49218000  0.79930000  0.12880000  1
  O  O88  1  0.50782000  0.29930000  0.37120000  1
  O  O89  1  0.50940000  0.45060000  0.31900000  1
  O  O90  1  0.51830000  0.21850000  0.54570000  1
  O  O91  1  0.54404000  0.17705000  0.40356000  1
  O  O92  1  0.54570000  0.51830000  0.21850000  1
  O  O93  1  0.54940000  0.81900000  0.99060000  1
  O  O94  1  0.59644000  0.04404000  0.32295000  1
  O  O95  1  0.59681000  0.64150000  0.13280000  1
  O  O96  1  0.61260000  0.86056000  0.24287000  1
  O  O97  1  0.62880000  0.00782000  0.20070000  1
  O  O98  1  0.63280000  0.90319000  0.35850000  1
  O  O99  1  0.63944000  0.75713000  0.11260000  1
  O  O100  1  0.64150000  0.13280000  0.59681000  1
  O  O101  1  0.67705000  0.09644000  0.45596000  1
  O  O102  1  0.68100000  0.00940000  0.04940000  1
  O  O103  1  0.70070000  0.87120000  0.99218000  1
  O  O104  1  0.71850000  0.95430000  0.48170000  1
  O  O105  1  0.74287000  0.88740000  0.13944000  1
  O  O106  1  0.75713000  0.11260000  0.63944000  1
  O  O107  1  0.78150000  0.04570000  0.98170000  1
  O  O108  1  0.79930000  0.12880000  0.49218000  1
  O  O109  1  0.81900000  0.99060000  0.54940000  1
  O  O110  1  0.82295000  0.90356000  0.95596000  1
  O  O111  1  0.85850000  0.86720000  0.09681000  1
  O  O112  1  0.86056000  0.24287000  0.61260000  1
  O  O113  1  0.86720000  0.09681000  0.85850000  1
  O  O114  1  0.87120000  0.99218000  0.70070000  1
  O  O115  1  0.88740000  0.13944000  0.74287000  1
  O  O116  1  0.90319000  0.35850000  0.63280000  1
  O  O117  1  0.90356000  0.95596000  0.82295000  1
  O  O118  1  0.95060000  0.18100000  0.49060000  1
  O  O119  1  0.95430000  0.48170000  0.71850000  1
  O  O120  1  0.95596000  0.82295000  0.90356000  1
  O  O121  1  0.98170000  0.78150000  0.04570000  1
  O  O122  1  0.99060000  0.54940000  0.81900000  1
  O  O123  1  0.99218000  0.70070000  0.87120000  1
