# generated using pymatgen
data_Al3P3O12F
_symmetry_space_group_name_H-M   'P 1'
_cell_length_a   9.22760000
_cell_length_b   9.28610000
_cell_length_c   9.37890000
_cell_angle_alpha   85.21280000
_cell_angle_beta   77.31190000
_cell_angle_gamma   89.34720000
_symmetry_Int_Tables_number   1
_chemical_formula_structural   Al3P3O12F
_chemical_formula_sum   'Al6 P6 O24 F2'
_cell_volume   781.28279810
_cell_formula_units_Z   2
loop_
 _symmetry_equiv_pos_site_id
 _symmetry_equiv_pos_as_xyz
  1  'x, y, z'
loop_
 _atom_site_type_symbol
 _atom_site_label
 _atom_site_symmetry_multiplicity
 _atom_site_fract_x
 _atom_site_fract_y
 _atom_site_fract_z
 _atom_site_occupancy
  Al  Al0  1  0.13360000  0.93470000  0.91590000  1
  Al  Al1  1  0.37680000  0.34171000  0.91440000  1
  Al  Al2  1  0.39560000  0.11930000  0.33950000  1
  Al  Al3  1  0.60440000  0.88070000  0.66050000  1
  Al  Al4  1  0.62320000  0.65829000  0.08560000  1
  Al  Al5  1  0.86640000  0.06530000  0.08410000  1
  P  P6  1  0.17000000  0.13943000  0.13700000  1
  P  P7  1  0.37550000  0.12060000  0.67611000  1
  P  P8  1  0.37910000  0.68407000  0.90472000  1
  P  P9  1  0.62090000  0.31593000  0.09528000  1
  P  P10  1  0.62450000  0.87940000  0.32389000  1
  P  P11  1  0.83000000  0.86057000  0.86300000  1
  O  O12  1  0.00010000  0.85530000  0.81450000  1
  O  O13  1  0.22720000  0.76640000  0.93320000  1
  O  O14  1  0.22780000  0.11940000  0.28030000  1
  O  O15  1  0.23150000  0.28630000  0.05970000  1
  O  O16  1  0.23290000  0.02360000  0.03670000  1
  O  O17  1  0.25400000  0.01260000  0.74600000  1
  O  O18  1  0.35070000  0.52490000  0.87580000  1
  O  O19  1  0.36110000  0.16780000  0.51720000  1
  O  O20  1  0.36820000  0.25520000  0.75660000  1
  O  O21  1  0.45980000  0.68770000  0.03810000  1
  O  O22  1  0.47290000  0.94900000  0.33100000  1
  O  O23  1  0.48830000  0.74540000  0.76670000  1
  O  O24  1  0.51170000  0.25460000  0.23330000  1
  O  O25  1  0.52710000  0.05100000  0.66900000  1
  O  O26  1  0.54020000  0.31230000  0.96190000  1
  O  O27  1  0.63180000  0.74480000  0.24340000  1
  O  O28  1  0.63890000  0.83220000  0.48280000  1
  O  O29  1  0.64930000  0.47510000  0.12420000  1
  O  O30  1  0.74600000  0.98740000  0.25400000  1
  O  O31  1  0.76710000  0.97640000  0.96330000  1
  O  O32  1  0.76850000  0.71370000  0.94030000  1
  O  O33  1  0.77220000  0.88060000  0.71970000  1
  O  O34  1  0.77280000  0.23360000  0.06680000  1
  O  O35  1  0.99990000  0.14470000  0.18550000  1
  F  F36  1  0.01540000  0.10500000  0.91940000  1
  F  F37  1  0.98460000  0.89500000  0.08060000  1
