# generated using pymatgen
data_ZnH14C20NO4
_symmetry_space_group_name_H-M   'P 1'
_cell_length_a   6.64000000
_cell_length_b   13.62610000
_cell_length_c   24.46750000
_cell_angle_alpha   75.88410000
_cell_angle_beta   82.20150000
_cell_angle_gamma   75.89800000
_symmetry_Int_Tables_number   1
_chemical_formula_structural   ZnH14C20NO4
_chemical_formula_sum   'Zn4 H56 C80 N4 O16'
_cell_volume   2075.35104604
_cell_formula_units_Z   4
loop_
 _symmetry_equiv_pos_site_id
 _symmetry_equiv_pos_as_xyz
  1  'x, y, z'
loop_
 _atom_site_type_symbol
 _atom_site_label
 _atom_site_symmetry_multiplicity
 _atom_site_fract_x
 _atom_site_fract_y
 _atom_site_fract_z
 _atom_site_occupancy
  Zn  Zn0  1  0.06153000  0.09752000  0.03088000  1
  Zn  Zn1  1  0.18993000  0.40248000  0.46912000  1
  Zn  Zn2  1  0.81007000  0.59752000  0.53088000  1
  Zn  Zn3  1  0.93847000  0.90248000  0.96912000  1
  H  H4  1  0.01360000  0.31080000  0.97180000  1
  H  H5  1  0.04240000  0.69430000  0.19070000  1
  H  H6  1  0.04690000  0.03570000  0.44190000  1
  H  H7  1  0.06520000  0.82100000  0.40380000  1
  H  H8  1  0.06670000  0.78450000  0.57610000  1
  H  H9  1  0.07260000  0.19430000  0.69070000  1
  H  H10  1  0.10660000  0.89540000  0.23280000  1
  H  H11  1  0.11450000  0.03680000  0.53180000  1
  H  H12  1  0.13040000  0.45920000  0.97220000  1
  H  H13  1  0.21710000  0.18440000  0.84600000  1
  H  H14  1  0.21730000  0.55380000  0.66900000  1
  H  H15  1  0.23480000  0.60460000  0.26720000  1
  H  H16  1  0.24750000  0.31560000  0.65400000  1
  H  H17  1  0.25140000  0.92470000  0.33650000  1
  H  H18  1  0.29000000  0.67900000  0.09620000  1
  H  H19  1  0.29620000  0.18920000  0.52820000  1
  H  H20  1  0.31690000  0.53680000  0.03180000  1
  H  H21  1  0.33240000  0.63590000  0.57570000  1
  H  H22  1  0.38040000  0.96830000  0.24670000  1
  H  H23  1  0.40460000  0.46830000  0.74670000  1
  H  H24  1  0.42730000  0.71550000  0.92390000  1
  H  H25  1  0.43370000  0.41890000  0.58650000  1
  H  H26  1  0.43820000  0.95920000  0.47220000  1
  H  H27  1  0.43910000  0.08110000  0.91350000  1
  H  H28  1  0.44010000  0.94620000  0.83100000  1
  H  H29  1  0.45600000  0.13590000  0.07570000  1
  H  H30  1  0.47550000  0.53570000  0.94190000  1
  H  H31  1  0.48740000  0.42470000  0.83650000  1
  H  H32  1  0.51260000  0.57530000  0.16350000  1
  H  H33  1  0.52450000  0.46430000  0.05810000  1
  H  H34  1  0.54400000  0.86410000  0.92430000  1
  H  H35  1  0.55990000  0.05380000  0.16900000  1
  H  H36  1  0.56090000  0.91890000  0.08650000  1
  H  H37  1  0.56180000  0.04080000  0.52780000  1
  H  H38  1  0.56630000  0.58110000  0.41350000  1
  H  H39  1  0.57270000  0.28450000  0.07610000  1
  H  H40  1  0.59540000  0.53170000  0.25330000  1
  H  H41  1  0.61960000  0.03170000  0.75330000  1
  H  H42  1  0.66760000  0.36410000  0.42430000  1
  H  H43  1  0.68310000  0.46320000  0.96820000  1
  H  H44  1  0.70380000  0.81080000  0.47180000  1
  H  H45  1  0.71000000  0.32100000  0.90380000  1
  H  H46  1  0.74860000  0.07530000  0.66350000  1
  H  H47  1  0.75250000  0.68440000  0.34600000  1
  H  H48  1  0.76520000  0.39540000  0.73280000  1
  H  H49  1  0.78270000  0.44620000  0.33100000  1
  H  H50  1  0.78290000  0.81560000  0.15400000  1
  H  H51  1  0.86960000  0.54080000  0.02780000  1
  H  H52  1  0.88550000  0.96320000  0.46820000  1
  H  H53  1  0.89340000  0.10460000  0.76720000  1
  H  H54  1  0.92740000  0.80570000  0.30930000  1
  H  H55  1  0.93330000  0.21550000  0.42390000  1
  H  H56  1  0.93480000  0.17900000  0.59620000  1
  H  H57  1  0.95310000  0.96430000  0.55810000  1
  H  H58  1  0.95760000  0.30570000  0.80930000  1
  H  H59  1  0.98640000  0.68920000  0.02820000  1
  C  C60  1  0.01110000  0.35630000  0.78090000  1
  C  C61  1  0.02775000  0.51700000  0.30730000  1
  C  C62  1  0.02900000  0.96748000  0.85892000  1
  C  C63  1  0.04129000  0.09058000  0.76484000  1
  C  C64  1  0.05470000  0.98080000  0.52560000  1
  C  C65  1  0.10329000  0.59058000  0.26484000  1
  C  C66  1  0.12710000  0.30540000  0.99300000  1
  C  C67  1  0.14460000  0.46748000  0.35892000  1
  C  C68  1  0.14795000  0.01700000  0.80730000  1
  C  C69  1  0.14830000  0.14370000  0.71910000  1
  C  C70  1  0.16356000  0.50365000  0.69763000  1
  C  C71  1  0.17114000  0.62202000  0.45490000  1
  C  C72  1  0.19610000  0.78970000  0.55490000  1
  C  C73  1  0.19650000  0.39360000  0.99320000  1
  C  C74  1  0.20354000  0.37583000  0.78589000  1
  C  C75  1  0.20461000  0.79266000  0.39152000  1
  C  C76  1  0.22740000  0.88580000  0.52420000  1
  C  C77  1  0.24806000  0.87798000  0.04510000  1
  C  C78  1  0.27597000  0.45204000  0.74362000  1
  C  C79  1  0.29475000  0.68941000  0.41429000  1
  C  C80  1  0.31521000  0.85441000  0.35137000  1
  C  C81  1  0.31927000  0.21216000  0.85710000  1
  C  C82  1  0.33333333  0.31408000  0.83262000  1
  C  C83  1  0.35390000  0.70150000  0.55470000  1
  C  C84  1  0.36260000  0.38580000  0.02420000  1
  C  C85  1  0.36484000  0.99635000  0.80237000  1
  C  C86  1  0.36526000  0.12417000  0.71411000  1
  C  C87  1  0.38853000  0.28784000  0.64290000  1
  C  C88  1  0.38879000  0.70734000  0.10848000  1
  C  C89  1  0.38990000  0.20150000  0.05470000  1
  C  C90  1  0.39845000  0.81059000  0.08571000  1
  C  C91  1  0.41670000  0.89360000  0.49320000  1
  C  C92  1  0.42550000  0.19460000  0.50700000  1
  C  C93  1  0.43890000  0.48080000  0.02560000  1
  C  C94  1  0.45137000  0.15048000  0.89738000  1
  C  C95  1  0.45930000  0.28970000  0.05490000  1
  C  C96  1  0.47163000  0.04796000  0.75638000  1
  C  C97  1  0.47901000  0.35441000  0.85137000  1
  C  C98  1  0.48005000  0.18592000  0.66738000  1
  C  C99  1  0.49923000  0.34952000  0.60262000  1
  C  C100  1  0.50077000  0.65048000  0.39738000  1
  C  C101  1  0.51995000  0.81408000  0.33262000  1
  C  C102  1  0.52099000  0.64559000  0.14863000  1
  C  C103  1  0.52837000  0.95204000  0.24362000  1
  C  C104  1  0.54070000  0.71030000  0.94510000  1
  C  C105  1  0.54863000  0.84952000  0.10262000  1
  C  C106  1  0.56110000  0.51920000  0.97440000  1
  C  C107  1  0.57450000  0.80540000  0.49300000  1
  C  C108  1  0.58330000  0.10640000  0.50680000  1
  C  C109  1  0.60155000  0.18941000  0.91429000  1
  C  C110  1  0.61010000  0.79850000  0.94530000  1
  C  C111  1  0.61121000  0.29266000  0.89152000  1
  C  C112  1  0.61147000  0.71216000  0.35710000  1
  C  C113  1  0.63474000  0.87583000  0.28589000  1
  C  C114  1  0.63516000  0.00365000  0.19763000  1
  C  C115  1  0.63740000  0.61420000  0.97580000  1
  C  C116  1  0.64610000  0.29850000  0.44530000  1
  C  C117  1  0.66666667  0.68592000  0.16738000  1
  C  C118  1  0.68073000  0.78784000  0.14290000  1
  C  C119  1  0.68479000  0.14559000  0.64863000  1
  C  C120  1  0.70525000  0.31059000  0.58571000  1
  C  C121  1  0.72403000  0.54796000  0.25638000  1
  C  C122  1  0.75194000  0.12202000  0.95490000  1
  C  C123  1  0.77260000  0.11420000  0.47580000  1
  C  C124  1  0.79539000  0.20734000  0.60848000  1
  C  C125  1  0.79646000  0.62417000  0.21411000  1
  C  C126  1  0.80350000  0.60640000  0.00680000  1
  C  C127  1  0.80390000  0.21030000  0.44510000  1
  C  C128  1  0.82886000  0.37798000  0.54510000  1
  C  C129  1  0.83644000  0.49635000  0.30237000  1
  C  C130  1  0.85170000  0.85630000  0.28090000  1
  C  C131  1  0.85205000  0.98300000  0.19270000  1
  C  C132  1  0.85540000  0.53252000  0.64108000  1
  C  C133  1  0.87290000  0.69460000  0.00700000  1
  C  C134  1  0.89671000  0.40942000  0.73516000  1
  C  C135  1  0.94530000  0.01920000  0.47440000  1
  C  C136  1  0.95871000  0.90942000  0.23516000  1
  C  C137  1  0.97100000  0.03252000  0.14108000  1
  C  C138  1  0.97225000  0.48300000  0.69270000  1
  C  C139  1  0.98890000  0.64370000  0.21910000  1
  N  N140  1  0.22380000  0.20930000  0.02370000  1
  N  N141  1  0.45680000  0.29070000  0.47630000  1
  N  N142  1  0.54320000  0.70930000  0.52370000  1
  N  N143  1  0.77620000  0.79070000  0.97630000  1
  O  O144  1  0.01878000  0.33848000  0.53376000  1
  O  O145  1  0.03506000  0.42939000  0.40329000  1
  O  O146  1  0.10898000  0.83848000  0.03376000  1
  O  O147  1  0.13226000  0.92939000  0.90329000  1
  O  O148  1  0.15443000  0.03447000  0.14247000  1
  O  O149  1  0.25973000  0.52978000  0.47596000  1
  O  O150  1  0.26547000  0.97022000  0.02404000  1
  O  O151  1  0.33137000  0.46553000  0.35753000  1
  O  O152  1  0.66863000  0.53447000  0.64247000  1
  O  O153  1  0.73453000  0.02978000  0.97596000  1
  O  O154  1  0.74027000  0.47022000  0.52404000  1
  O  O155  1  0.84557000  0.96553000  0.85753000  1
  O  O156  1  0.86774000  0.07061000  0.09671000  1
  O  O157  1  0.89102000  0.16152000  0.96624000  1
  O  O158  1  0.96494000  0.57061000  0.59671000  1
  O  O159  1  0.98122000  0.66152000  0.46624000  1
