# generated using pymatgen
data_Mn6H39C31(NO8)2
_symmetry_space_group_name_H-M   'P 1'
_cell_length_a   14.17780000
_cell_length_b   28.05540672
_cell_length_c   28.05540672
_cell_angle_alpha   117.22183829
_cell_angle_beta   99.69771115
_cell_angle_gamma   99.69771115
_symmetry_Int_Tables_number   1
_chemical_formula_structural   Mn6H39C31(NO8)2
_chemical_formula_sum   'Mn36 H234 C186 N12 O96'
_cell_volume   9390.11942860
_cell_formula_units_Z   6
loop_
 _symmetry_equiv_pos_site_id
 _symmetry_equiv_pos_as_xyz
  1  'x, y, z'
loop_
 _atom_site_type_symbol
 _atom_site_label
 _atom_site_symmetry_multiplicity
 _atom_site_fract_x
 _atom_site_fract_y
 _atom_site_fract_z
 _atom_site_occupancy
  C  C0  1  0.33690000  0.24950000  0.75160000  1
  C  C1  1  0.25790000  0.72580000  0.28610000  1
  C  C2  1  0.71017000  0.44415000  0.56896000  1
  C  C3  1  0.33310000  0.77090000  0.24760000  1
  C  C4  1  0.34130000  0.72820000  0.29900000  1
  C  C5  1  0.40750000  0.76300000  0.27440000  1
  C  C6  1  0.39340000  0.58839000  0.45091000  1
  C  C7  1  0.62156000  0.53247000  0.51181000  1
  C  C8  1  0.06256000  0.60350000  0.44408000  1
  C  C9  1  0.89042000  0.61874000  0.43892000  1
  C  C10  1  0.60610000  0.28620000  0.77270000  1
  C  C11  1  0.34287000  0.77076000  0.30435000  1
  C  C12  1  0.66960000  0.32490000  0.75140000  1
  C  C13  1  0.75230000  0.32580000  0.76490000  1
  C  C14  1  0.68090000  0.28710000  0.80420000  1
  C  C15  1  0.34470000  0.42650000  0.67510000  1
  C  C16  1  0.35810000  0.30310000  0.80570000  1
  C  C17  1  0.42650000  0.43910000  0.67420000  1
  C  C18  1  0.99974000  0.64311000  0.47101000  1
  C  C19  1  0.04230000  0.70100000  0.42920000  1
  C  C20  1  0.96010000  0.82950000  0.30120000  1
  C  C21  1  0.44390000  0.19290000  0.95340000  1
  C  C22  1  0.97180000  0.71390000  0.43970000  1
  C  C23  1  0.69872000  0.65031000  0.50425000  1
  C  C24  1  0.38690000  0.42920000  0.72820000  1
  C  C25  1  0.03852000  0.69565000  0.46641000  1
  C  C26  1  0.46790000  0.43970000  0.72580000  1
  C  C27  1  0.08180000  0.75140000  0.42650000  1
  C  C28  1  0.35663000  0.82790000  0.35689000  1
  C  C29  1  0.61510000  0.21440000  0.97750000  1
  C  C30  1  0.02092000  0.66276000  0.53320000  1
  C  C31  1  0.44530000  0.24290000  0.95530000  1
  C  C32  1  0.05500000  0.50260000  0.69690000  1
  C  C33  1  0.31990000  0.48650000  0.71380000  1
  C  C34  1  0.27168000  0.82018000  0.38126000  1
  C  C35  1  0.04841000  0.85394000  0.34969000  1
  C  C36  1  0.01260000  0.76490000  0.43910000  1
  C  C37  1  0.35816000  0.87044000  0.33724000  1
  C  C38  1  0.13310000  0.72560000  0.48860000  1
  C  C39  1  0.65890000  0.69880000  0.52830000  1
  C  C40  1  0.39380000  0.51710000  0.71290000  1
  C  C41  1  0.45906000  0.84058000  0.39650000  1
  C  C42  1  0.42789000  0.46641000  0.77076000  1
  C  C43  1  0.61450000  0.26190000  0.97620000  1
  C  C44  1  0.53499000  0.27968000  0.96709000  1
  C  C45  1  0.35550000  0.48860000  0.76300000  1
  C  C46  1  0.08740000  0.50210000  0.75050000  1
  C  C47  1  0.41470000  0.75160000  0.50210000  1
  C  C48  1  0.26972000  0.59242000  0.66414000  1
  C  C49  1  0.54850000  0.43892000  0.82018000  1
  C  C50  1  0.16660000  0.77270000  0.48650000  1
  C  C51  1  0.63760000  0.02250000  0.23690000  1
  C  C52  1  0.84620000  0.61020000  0.64990000  1
  C  C53  1  0.60558000  0.33586000  0.92828000  1
  C  C54  1  0.21080000  0.64890000  0.62020000  1
  C  C55  1  0.09558000  0.60820000  0.66144000  1
  C  C56  1  0.80501000  0.86252000  0.41161000  1
  C  C57  1  0.08550000  0.75240000  0.52330000  1
  C  C58  1  0.38152000  0.44408000  0.84058000  1
  C  C59  1  0.43414000  0.33856000  0.94676000  1
  C  C60  1  0.49050000  0.04660000  0.23950000  1
  C  C61  1  0.43780000  0.52330000  0.77090000  1
  C  C62  1  0.20858000  0.63190000  0.66384000  1
  C  C63  1  0.47127000  0.47101000  0.82790000  1
  C  C64  1  0.54474000  0.33616000  0.96806000  1
  C  C65  1  0.14121000  0.43104000  0.87519000  1
  C  C66  1  0.44760000  0.80570000  0.50260000  1
  C  C67  1  0.63830000  0.02380000  0.28570000  1
  C  C68  1  0.19630000  0.35010000  0.96030000  1
  C  C69  1  0.05751000  0.45091000  0.86252000  1
  C  C70  1  0.73398000  0.87519000  0.44415000  1
  C  C71  1  0.12330000  0.80420000  0.51710000  1
  C  C72  1  0.56190000  0.97130000  0.35110000  1
  C  C73  1  0.80600000  0.65890000  0.66660000  1
  C  C74  1  0.13940000  0.33340000  0.99230000  1
  C  C75  1  0.49000000  0.04470000  0.28760000  1
  C  C76  1  0.56790000  0.03291000  0.31259000  1
  C  C77  1  0.14710000  0.00770000  0.34110000  1
  C  C78  1  0.86940000  0.52830000  0.82950000  1
  C  C79  1  0.80553000  0.50425000  0.85394000  1
  C  C80  1  0.57668000  0.03194000  0.36810000  1
  C  C81  1  0.51228000  0.53320000  0.87044000  1
  C  C82  1  0.25531000  0.68741000  0.72032000  1
  C  C83  1  0.59060000  0.37980000  0.02870000  1
  C  C84  1  0.23600000  0.03970000  0.38980000  1
  C  C85  1  0.74900000  0.23950000  0.19290000  1
  C  C86  1  0.48738000  0.05324000  0.39180000  1
  C  C87  1  0.08909000  0.97934000  0.46753000  1
  C  C88  1  0.59930000  0.23690000  0.21440000  1
  C  C89  1  0.35260000  0.71430000  0.73810000  1
  C  C90  1  0.20240000  0.71240000  0.75710000  1
  C  C91  1  0.67730000  0.07172000  0.40758000  1
  C  C92  1  0.89025000  0.51181000  0.97934000  1
  C  C93  1  0.10975000  0.48819000  0.02066000  1
  C  C94  1  0.32270000  0.92828000  0.59242000  1
  C  C95  1  0.79760000  0.28760000  0.24290000  1
  C  C96  1  0.64740000  0.28570000  0.26190000  1
  C  C97  1  0.40070000  0.76310000  0.78560000  1
  C  C98  1  0.91091000  0.02066000  0.53247000  1
  C  C99  1  0.51262000  0.94676000  0.60820000  1
  C  C100  1  0.25100000  0.76050000  0.80710000  1
  C  C101  1  0.76400000  0.96030000  0.61020000  1
  C  C102  1  0.40940000  0.62020000  0.97130000  1
  C  C103  1  0.74469000  0.31259000  0.27968000  1
  C  C104  1  0.48772000  0.46680000  0.12956000  1
  C  C105  1  0.42332000  0.96806000  0.63190000  1
  C  C106  1  0.19447000  0.49575000  0.14606000  1
  C  C107  1  0.13060000  0.47170000  0.17050000  1
  C  C108  1  0.85290000  0.99230000  0.65890000  1
  C  C109  1  0.43210000  0.96709000  0.68741000  1
  C  C110  1  0.51000000  0.95530000  0.71240000  1
  C  C111  1  0.86060000  0.66660000  0.00770000  1
  C  C112  1  0.19400000  0.34110000  0.33340000  1
  C  C113  1  0.43810000  0.02870000  0.64890000  1
  C  C114  1  0.87670000  0.19580000  0.48290000  1
  C  C115  1  0.26602000  0.12481000  0.55585000  1
  C  C116  1  0.94249000  0.54909000  0.13748000  1
  C  C117  1  0.80370000  0.64990000  0.03970000  1
  C  C118  1  0.36170000  0.97620000  0.71430000  1
  C  C119  1  0.55240000  0.19430000  0.49740000  1
  C  C120  1  0.85879000  0.56896000  0.12481000  1
  C  C121  1  0.45526000  0.66384000  0.03194000  1
  C  C122  1  0.52873000  0.52899000  0.17210000  1
  C  C123  1  0.79142000  0.36810000  0.33616000  1
  C  C124  1  0.56220000  0.47670000  0.22910000  1
  C  C125  1  0.50950000  0.95340000  0.76050000  1
  C  C126  1  0.56586000  0.66144000  0.05324000  1
  C  C127  1  0.61848000  0.55592000  0.15942000  1
  C  C128  1  0.91450000  0.24760000  0.47670000  1
  C  C129  1  0.19499000  0.13748000  0.58839000  1
  C  C130  1  0.90442000  0.39180000  0.33856000  1
  C  C131  1  0.78920000  0.35110000  0.37980000  1
  C  C132  1  0.39442000  0.66414000  0.07172000  1
  C  C133  1  0.15380000  0.38980000  0.35010000  1
  C  C134  1  0.36240000  0.97750000  0.76310000  1
  C  C135  1  0.83340000  0.22730000  0.51350000  1
  C  C136  1  0.45150000  0.56108000  0.17982000  1
  C  C137  1  0.73028000  0.40758000  0.33586000  1
  C  C138  1  0.58530000  0.24840000  0.49790000  1
  C  C139  1  0.91260000  0.49790000  0.24950000  1
  C  C140  1  0.64450000  0.51140000  0.23700000  1
  C  C141  1  0.46501000  0.72032000  0.03291000  1
  C  C142  1  0.38550000  0.73810000  0.02380000  1
  C  C143  1  0.57211000  0.53359000  0.22924000  1
  C  C144  1  0.54094000  0.15942000  0.60350000  1
  C  C145  1  0.60620000  0.48290000  0.28710000  1
  C  C146  1  0.34110000  0.30120000  0.47170000  1
  C  C147  1  0.86690000  0.27440000  0.51140000  1
  C  C148  1  0.64184000  0.12956000  0.66276000  1
  C  C149  1  0.98740000  0.23510000  0.56090000  1
  C  C150  1  0.95159000  0.14606000  0.65031000  1
  C  C151  1  0.72832000  0.17982000  0.61874000  1
  C  C152  1  0.68010000  0.51350000  0.28620000  1
  C  C153  1  0.94500000  0.49740000  0.30310000  1
  C  C154  1  0.55470000  0.75710000  0.04470000  1
  C  C155  1  0.97908000  0.33724000  0.46680000  1
  C  C156  1  0.38490000  0.78560000  0.02250000  1
  C  C157  1  0.64337000  0.17210000  0.64311000  1
  C  C158  1  0.91820000  0.24860000  0.57350000  1
  C  C159  1  0.53210000  0.56030000  0.27420000  1
  C  C160  1  0.96148000  0.30435000  0.53359000  1
  C  C161  1  0.61310000  0.57080000  0.27180000  1
  C  C162  1  0.30128000  0.34969000  0.49575000  1
  C  C163  1  0.02820000  0.28610000  0.56030000  1
  C  C164  1  0.55610000  0.80710000  0.04660000  1
  C  C165  1  0.03990000  0.17050000  0.69880000  1
  C  C166  1  0.95770000  0.29900000  0.57080000  1
  C  C167  1  0.00026000  0.35689000  0.52899000  1
  C  C168  1  0.57350000  0.56090000  0.32580000  1
  C  C169  1  0.64190000  0.69690000  0.19430000  1
  C  C170  1  0.65530000  0.57350000  0.32490000  1
  C  C171  1  0.31910000  0.71290000  0.19580000  1
  C  C172  1  0.24770000  0.67420000  0.23510000  1
  C  C173  1  0.33040000  0.67510000  0.24860000  1
  C  C174  1  0.65713000  0.22924000  0.69565000  1
  C  C175  1  0.39390000  0.71380000  0.22730000  1
  C  C176  1  0.10958000  0.38126000  0.56108000  1
  C  C177  1  0.93744000  0.39650000  0.55592000  1
  C  C178  1  0.37844000  0.46753000  0.48819000  1
  C  C179  1  0.60660000  0.41161000  0.54909000  1
  C  C180  1  0.59250000  0.23700000  0.72560000  1
  C  C181  1  0.65870000  0.27180000  0.70100000  1
  C  C182  1  0.66690000  0.22910000  0.75240000  1
  C  C183  1  0.28983000  0.55585000  0.43104000  1
  C  C184  1  0.74210000  0.27420000  0.71390000  1
  C  C185  1  0.66310000  0.75050000  0.24840000  1
  H  H186  1  0.05620000  0.59660000  0.40640000  1
  H  H187  1  0.56800000  0.43450000  0.56910000  1
  H  H188  1  0.44020000  0.49510000  0.51300000  1
  H  H189  1  0.88400000  0.60940000  0.40050000  1
  H  H190  1  0.62720000  0.77420000  0.24240000  1
  H  H191  1  0.64250000  0.74240000  0.27540000  1
  H  H192  1  0.73330000  0.76890000  0.26180000  1
  H  H193  1  0.30910000  0.39060000  0.64290000  1
  H  H194  1  0.20900000  0.72980000  0.30640000  1
  H  H195  1  0.34160000  0.80450000  0.24550000  1
  H  H196  1  0.34800000  0.72670000  0.33290000  1
  H  H197  1  0.01510000  0.66710000  0.39380000  1
  H  H198  1  0.45240000  0.42140000  0.64300000  1
  H  H199  1  0.39840000  0.61970000  0.44510000  1
  H  H200  1  0.64010000  0.52870000  0.54420000  1
  H  H201  1  0.97710000  0.80720000  0.26770000  1
  H  H202  1  0.46610000  0.79310000  0.28690000  1
  H  H203  1  0.55580000  0.28950000  0.79220000  1
  H  H204  1  0.13220000  0.62160000  0.46510000  1
  H  H205  1  0.41820000  0.60150000  0.49000000  1
  H  H206  1  0.61360000  0.56910000  0.52300000  1
  H  H207  1  0.85610000  0.64700000  0.45470000  1
  H  H208  1  0.66620000  0.35710000  0.74770000  1
  H  H209  1  0.38220000  0.16750000  0.94250000  1
  H  H210  1  0.90790000  0.80670000  0.30570000  1
  H  H211  1  0.90260000  0.69360000  0.42340000  1
  H  H212  1  0.37870000  0.39380000  0.72670000  1
  H  H213  1  0.80940000  0.35700000  0.77840000  1
  H  H214  1  0.69300000  0.29390000  0.84180000  1
  H  H215  1  0.08150000  0.74770000  0.39060000  1
  H  H216  1  0.52080000  0.42340000  0.72980000  1
  H  H217  1  0.93780000  0.85900000  0.29870000  1
  H  H218  1  0.20910000  0.80770000  0.35300000  1
  H  H219  1  0.29670000  0.85790000  0.30820000  1
  H  H220  1  0.27460000  0.79110000  0.39060000  1
  H  H221  1  0.41260000  0.87080000  0.32050000  1
  H  H222  1  0.36710000  0.72460000  0.46700000  1
  H  H223  1  0.51650000  0.40050000  0.79110000  1
  H  H224  1  0.67410000  0.20580000  0.98580000  1
  H  H225  1  0.60220000  0.69430000  0.50100000  1
  H  H226  1  0.56980000  0.30490000  0.89120000  1
  H  H227  1  0.96900000  0.77840000  0.42140000  1
  H  H228  1  0.38580000  0.25160000  0.94840000  1
  H  H229  1  0.77870000  0.82540000  0.38030000  1
  H  H230  1  0.09990000  0.46700000  0.74240000  1
  H  H231  1  0.45960000  0.80980000  0.40340000  1
  H  H232  1  0.26630000  0.50270000  0.71050000  1
  H  H233  1  0.35020000  0.40640000  0.80980000  1
  H  H234  1  0.40150000  0.30690000  0.90960000  1
  H  H235  1  0.17920000  0.71310000  0.50620000  1
  H  H236  1  0.51060000  0.84350000  0.37840000  1
  H  H237  1  0.09210000  0.67950000  0.55030000  1
  H  H238  1  0.68830000  0.01420000  0.22000000  1
  H  H239  1  0.98850000  0.69180000  0.54970000  1
  H  H240  1  0.47150000  0.73820000  0.50710000  1
  H  H241  1  0.39910000  0.54790000  0.70610000  1
  H  H242  1  0.63910000  0.70130000  0.56030000  1
  H  H243  1  0.59860000  0.45470000  0.80770000  1
  H  H244  1  0.67600000  0.28460000  0.98200000  1
  H  H245  1  0.66820000  0.32910000  0.93960000  1
  H  H246  1  0.04670000  0.44510000  0.82540000  1
  H  H247  1  0.70940000  0.73230000  0.53950000  1
  H  H248  1  0.03560000  0.50710000  0.76890000  1
  H  H249  1  0.49500000  0.95060000  0.32650000  1
  H  H250  1  0.33910000  0.61050000  0.67090000  1
  H  H251  1  0.26490000  0.58630000  0.69510000  1
  H  H252  1  0.43970000  0.05750000  0.22500000  1
  H  H253  1  0.81670000  0.88850000  0.39850000  1
  H  H254  1  0.60810000  0.95750000  0.32980000  1
  H  H255  1  0.38480000  0.75760000  0.53180000  1
  H  H256  1  0.06960000  0.32040000  0.97320000  1
  H  H257  1  0.23640000  0.79220000  0.50270000  1
  H  H258  1  0.09460000  0.60270000  0.69310000  1
  H  H259  1  0.99890000  0.43090000  0.86540000  1
  H  H260  1  0.16850000  0.67350000  0.62410000  1
  H  H261  1  0.27830000  0.67020000  0.62770000  1
  H  H262  1  0.05880000  0.63490000  0.66330000  1
  H  H263  1  0.78630000  0.66380000  0.63500000  1
  H  H264  1  0.32700000  0.50620000  0.79310000  1
  H  H265  1  0.86650000  0.86540000  0.43450000  1
  H  H266  1  0.16040000  0.30410000  0.99580000  1
  H  H267  1  0.14700000  0.53180000  0.77420000  1
  H  H268  1  0.12250000  0.97120000  0.33620000  1
  H  H269  1  0.89880000  0.50100000  0.80670000  1
  H  H270  1  0.39550000  0.33670000  0.97160000  1
  H  H271  1  0.33290000  0.46510000  0.84350000  1
  H  H272  1  0.16460000  0.00420000  0.30830000  1
  H  H273  1  0.09610000  0.75450000  0.55900000  1
  H  H274  1  0.69400000  0.01800000  0.30260000  1
  H  H275  1  0.74920000  0.65280000  0.67960000  1
  H  H276  1  0.83010000  0.53950000  0.80720000  1
  H  H277  1  0.43740000  0.05160000  0.30320000  1
  H  H278  1  0.46290000  0.55900000  0.80450000  1
  H  H279  1  0.09640000  0.02680000  0.34720000  1
  H  H280  1  0.07180000  0.49000000  0.88850000  1
  H  H281  1  0.04450000  0.95390000  0.43090000  1
  H  H282  1  0.85630000  0.69170000  0.69590000  1
  H  H283  1  0.14880000  0.84180000  0.54790000  1
  H  H284  1  0.78530000  0.22500000  0.16750000  1
  H  H285  1  0.42390000  0.02840000  0.36510000  1
  H  H286  1  0.15130000  0.36500000  0.02880000  1
  H  H287  1  0.56120000  0.54970000  0.85790000  1
  H  H288  1  0.39140000  0.69740000  0.71540000  1
  H  H289  1  0.65060000  0.37230000  0.04250000  1
  H  H290  1  0.92120000  0.56030000  0.85900000  1
  H  H291  1  0.45820000  0.55030000  0.87080000  1
  H  H292  1  0.54440000  0.37590000  0.04940000  1
  H  H293  1  0.53170000  0.22000000  0.20580000  1
  H  H294  1  0.09590000  0.45580000  0.98450000  1
  H  H295  1  0.13420000  0.69680000  0.74840000  1
  H  H296  1  0.72860000  0.06040000  0.38950000  1
  H  H297  1  0.92720000  0.48700000  0.98210000  1
  H  H298  1  0.90940000  0.52300000  0.95390000  1
  H  H299  1  0.05490000  0.98210000  0.49510000  1
  H  H300  1  0.32140000  0.89120000  0.58630000  1
  H  H301  1  0.11140000  0.01550000  0.47130000  1
  H  H302  1  0.49190000  0.09040000  0.39730000  1
  H  H303  1  0.50810000  0.90960000  0.60270000  1
  H  H304  1  0.88860000  0.98450000  0.52870000  1
  H  H305  1  0.67860000  0.10880000  0.41370000  1
  H  H306  1  0.94510000  0.01790000  0.50490000  1
  H  H307  1  0.09060000  0.47700000  0.04610000  1
  H  H308  1  0.07280000  0.51300000  0.01790000  1
  H  H309  1  0.27140000  0.93960000  0.61050000  1
  H  H310  1  0.86580000  0.30320000  0.25160000  1
  H  H311  1  0.90410000  0.54420000  0.01550000  1
  H  H312  1  0.46830000  0.78000000  0.79420000  1
  H  H313  1  0.45560000  0.62410000  0.95060000  1
  H  H314  1  0.54180000  0.44970000  0.12920000  1
  H  H315  1  0.07880000  0.43970000  0.14100000  1
  H  H316  1  0.34940000  0.62770000  0.95750000  1
  H  H317  1  0.60860000  0.30260000  0.28460000  1
  H  H318  1  0.43880000  0.45030000  0.14210000  1
  H  H319  1  0.84870000  0.63500000  0.97120000  1
  H  H320  1  0.57610000  0.97160000  0.63490000  1
  H  H321  1  0.21470000  0.77500000  0.83250000  1
  H  H322  1  0.85120000  0.15820000  0.45210000  1
  H  H323  1  0.14370000  0.30830000  0.30410000  1
  H  H324  1  0.95550000  0.04610000  0.56910000  1
  H  H325  1  0.92820000  0.51000000  0.11150000  1
  H  H326  1  0.90360000  0.97320000  0.65280000  1
  H  H327  1  0.53710000  0.44100000  0.19550000  1
  H  H328  1  0.56260000  0.94840000  0.69680000  1
  H  H329  1  0.16990000  0.46050000  0.19280000  1
  H  H330  1  0.25080000  0.34720000  0.32040000  1
  H  H331  1  0.30600000  0.98200000  0.69740000  1
  H  H332  1  0.90390000  0.24550000  0.44100000  1
  H  H333  1  0.83540000  0.99580000  0.69170000  1
  H  H334  1  0.66710000  0.53490000  0.15650000  1
  H  H335  1  0.60450000  0.66330000  0.02840000  1
  H  H336  1  0.10120000  0.49900000  0.19330000  1
  H  H337  1  0.87750000  0.02880000  0.66380000  1
  H  H338  1  0.85300000  0.46820000  0.22580000  1
  H  H339  1  0.13350000  0.13460000  0.56550000  1
  H  H340  1  0.83960000  0.69590000  0.00420000  1
  H  H341  1  0.67300000  0.49380000  0.20690000  1
  H  H342  1  0.21370000  0.33620000  0.36500000  1
  H  H343  1  0.94120000  0.36510000  0.33670000  1
  H  H344  1  0.72170000  0.32980000  0.37230000  1
  H  H345  1  0.83150000  0.32650000  0.37590000  1
  H  H346  1  0.00110000  0.56910000  0.13460000  1
  H  H347  1  0.90540000  0.39730000  0.30690000  1
  H  H348  1  0.76360000  0.20780000  0.49730000  1
  H  H349  1  0.93040000  0.67960000  0.02680000  1
  H  H350  1  0.61520000  0.24240000  0.46820000  1
  H  H351  1  0.39190000  0.04250000  0.67020000  1
  H  H352  1  0.18330000  0.11150000  0.60150000  1
  H  H353  1  0.56030000  0.94250000  0.77500000  1
  H  H354  1  0.73510000  0.41370000  0.30490000  1
  H  H355  1  0.66090000  0.38950000  0.32910000  1
  H  H356  1  0.50500000  0.04940000  0.67350000  1
  H  H357  1  0.96440000  0.49290000  0.23110000  1
  H  H358  1  0.29060000  0.26770000  0.46050000  1
  H  H359  1  0.95330000  0.55490000  0.17460000  1
  H  H360  1  0.33180000  0.67090000  0.06040000  1
  H  H361  1  0.32400000  0.71540000  0.01800000  1
  H  H362  1  0.40140000  0.54530000  0.19230000  1
  H  H363  1  0.36090000  0.29870000  0.43970000  1
  H  H364  1  0.60090000  0.45210000  0.29390000  1
  H  H365  1  0.52850000  0.26180000  0.49290000  1
  H  H366  1  0.01150000  0.30820000  0.45030000  1
  H  H367  1  0.31170000  0.98580000  0.78000000  1
  H  H368  1  0.90790000  0.32050000  0.44970000  1
  H  H369  1  0.48940000  0.15650000  0.62160000  1
  H  H370  1  0.82080000  0.28690000  0.49380000  1
  H  H371  1  0.59850000  0.69310000  0.09040000  1
  H  H372  1  0.64980000  0.59360000  0.19020000  1
  H  H373  1  0.73370000  0.49730000  0.28950000  1
  H  H374  1  0.54040000  0.19020000  0.59660000  1
  H  H375  1  0.90010000  0.53300000  0.25760000  1
  H  H376  1  0.22130000  0.17460000  0.61970000  1
  H  H377  1  0.61420000  0.74840000  0.05160000  1
  H  H378  1  0.03100000  0.22160000  0.57860000  1
  H  H379  1  0.43020000  0.69510000  0.10880000  1
  H  H380  1  0.39780000  0.30570000  0.49900000  1
  H  H381  1  0.63290000  0.27540000  0.53300000  1
  H  H382  1  0.32590000  0.79420000  0.01420000  1
  H  H383  1  0.48350000  0.59950000  0.20890000  1
  H  H384  1  0.58740000  0.12920000  0.67950000  1
  H  H385  1  0.72540000  0.20890000  0.60940000  1
  H  H386  1  0.70330000  0.14210000  0.69180000  1
  H  H387  1  0.79090000  0.19230000  0.64700000  1
  H  H388  1  0.06220000  0.14100000  0.70130000  1
  H  H389  1  0.47920000  0.57660000  0.27020000  1
  H  H390  1  0.91850000  0.25230000  0.60940000  1
  H  H391  1  0.30700000  0.70610000  0.15820000  1
  H  H392  1  0.19060000  0.64300000  0.22160000  1
  H  H393  1  0.62130000  0.60620000  0.27330000  1
  H  H394  1  0.09740000  0.30640000  0.57660000  1
  H  H395  1  0.09210000  0.19330000  0.69430000  1
  H  H396  1  0.61780000  0.83250000  0.05750000  1
  H  H397  1  0.33380000  0.64290000  0.25230000  1
  H  H398  1  0.14390000  0.35300000  0.54530000  1
  H  H399  1  0.38640000  0.43090000  0.47700000  1
  H  H400  1  0.58180000  0.39850000  0.51000000  1
  H  H401  1  0.86780000  0.37840000  0.53490000  1
  H  H402  1  0.44420000  0.71050000  0.20780000  1
  H  H403  1  0.53390000  0.20690000  0.71310000  1
  H  H404  1  0.02290000  0.19280000  0.73230000  1
  H  H405  1  0.35990000  0.47130000  0.45580000  1
  H  H406  1  0.60160000  0.38030000  0.55490000  1
  H  H407  1  0.54760000  0.57860000  0.35700000  1
  H  H408  1  0.98490000  0.33290000  0.60620000  1
  H  H409  1  0.65200000  0.27330000  0.66710000  1
  H  H410  1  0.65840000  0.19550000  0.75450000  1
  H  H411  1  0.79100000  0.27020000  0.69360000  1
  H  H412  1  0.69090000  0.60940000  0.35710000  1
  H  H413  1  0.26670000  0.23110000  0.73820000  1
  H  H414  1  0.35750000  0.25760000  0.72460000  1
  H  H415  1  0.37280000  0.22580000  0.75760000  1
  H  H416  1  0.11600000  0.39060000  0.59950000  1
  H  H417  1  0.55980000  0.50490000  0.48700000  1
  H  H418  1  0.43200000  0.56550000  0.43090000  1
  H  H419  1  0.94380000  0.40340000  0.59360000  1
  Mn  Mn420  1  0.32289000  0.46896000  0.59200000  1
  Mn  Mn421  1  0.10517000  0.49455000  0.59083000  1
  Mn  Mn422  1  0.04405000  0.55838000  0.52841000  1
  Mn  Mn423  1  0.26882000  0.55181000  0.54056000  1
  Mn  Mn424  1  0.83735000  0.58518000  0.52771000  1
  Mn  Mn425  1  0.89881000  0.51450000  0.61462000  1
  Mn  Mn426  1  0.73089000  0.40800000  0.87696000  1
  Mn  Mn427  1  0.28419000  0.38538000  0.89988000  1
  Mn  Mn428  1  0.51434000  0.40917000  0.90372000  1
  Mn  Mn429  1  0.14607000  0.87696000  0.46896000  1
  Mn  Mn430  1  0.25217000  0.94253000  0.41482000  1
  Mn  Mn431  1  0.38938000  0.90372000  0.49455000  1
  Mn  Mn432  1  0.48567000  0.97003000  0.44162000  1
  Mn  Mn433  1  0.61569000  0.89988000  0.51450000  1
  Mn  Mn434  1  0.71701000  0.98875000  0.44819000  1
  Mn  Mn435  1  0.69036000  0.52771000  0.94253000  1
  Mn  Mn436  1  0.72826000  0.45944000  0.01125000  1
  Mn  Mn437  1  0.48436000  0.52841000  0.97003000  1
  Mn  Mn438  1  0.51564000  0.47159000  0.02997000  1
  Mn  Mn439  1  0.27174000  0.54056000  0.98875000  1
  Mn  Mn440  1  0.30964000  0.47229000  0.05747000  1
  Mn  Mn441  1  0.28299000  0.01125000  0.55181000  1
  Mn  Mn442  1  0.38431000  0.10012000  0.48550000  1
  Mn  Mn443  1  0.51433000  0.02997000  0.55838000  1
  Mn  Mn444  1  0.61062000  0.09628000  0.50545000  1
  Mn  Mn445  1  0.74783000  0.05747000  0.58518000  1
  Mn  Mn446  1  0.85393000  0.12304000  0.53104000  1
  Mn  Mn447  1  0.48566000  0.59083000  0.09628000  1
  Mn  Mn448  1  0.71581000  0.61462000  0.10012000  1
  Mn  Mn449  1  0.26911000  0.59200000  0.12304000  1
  Mn  Mn450  1  0.10119000  0.48550000  0.38538000  1
  Mn  Mn451  1  0.16265000  0.41482000  0.47229000  1
  Mn  Mn452  1  0.73118000  0.44819000  0.45944000  1
  Mn  Mn453  1  0.95595000  0.44162000  0.47159000  1
  Mn  Mn454  1  0.89483000  0.50545000  0.40917000  1
  Mn  Mn455  1  0.67711000  0.53104000  0.40800000  1
  N  N456  1  0.68523000  0.33018000  0.79301000  1
  N  N457  1  0.35505000  0.46283000  0.66982000  1
  N  N458  1  0.52215000  0.17910000  0.96585000  1
  N  N459  1  0.55630000  0.03415000  0.21325000  1
  N  N460  1  0.10778000  0.79301000  0.46283000  1
  N  N461  1  0.65695000  0.21325000  0.17910000  1
  N  N462  1  0.34305000  0.78675000  0.82090000  1
  N  N463  1  0.89222000  0.20699000  0.53717000  1
  N  N464  1  0.44370000  0.96585000  0.78675000  1
  N  N465  1  0.47785000  0.82090000  0.03415000  1
  N  N466  1  0.64495000  0.53717000  0.33018000  1
  N  N467  1  0.31477000  0.66982000  0.20699000  1
  O  O468  1  0.91144000  0.50791000  0.49281000  1
  O  O469  1  0.24513000  0.54329000  0.46010000  1
  O  O470  1  0.96781000  0.44882000  0.55751000  1
  O  O471  1  0.69943000  0.52451000  0.48308000  1
  O  O472  1  0.84194000  0.56940000  0.43972000  1
  O  O473  1  0.65643000  0.61203000  0.45556000  1
  O  O474  1  0.76028000  0.46610000  0.61934000  1
  O  O475  1  0.28733000  0.31564000  0.82535000  1
  O  O476  1  0.24141000  0.53961000  0.61432000  1
  O  O477  1  0.44926000  0.33109000  0.82769000  1
  O  O478  1  0.11817000  0.49660000  0.66891000  1
  O  O479  1  0.98949000  0.62077000  0.54720000  1
  O  O480  1  0.05029000  0.55689000  0.61108000  1
  O  O481  1  0.17945000  0.60429000  0.56386000  1
  O  O482  1  0.84923000  0.58197000  0.60262000  1
  O  O483  1  0.77524000  0.65208000  0.53794000  1
  O  O484  1  0.97169000  0.50971000  0.68436000  1
  O  O485  1  0.19208000  0.31435000  0.90989000  1
  O  O486  1  0.14094000  0.38066000  0.84676000  1
  O  O487  1  0.04440000  0.84353000  0.38797000  1
  O  O488  1  0.12316000  0.88586000  0.34792000  1
  O  O489  1  0.87773000  0.59554000  0.68565000  1
  O  O490  1  0.79913000  0.45556000  0.84353000  1
  O  O491  1  0.27254000  0.87032000  0.43060000  1
  O  O492  1  0.36872000  0.92643000  0.37923000  1
  O  O493  1  0.59778000  0.43972000  0.87032000  1
  O  O494  1  0.62709000  0.38568000  0.92529000  1
  O  O495  1  0.70582000  0.84676000  0.46610000  1
  O  O496  1  0.37843000  0.82769000  0.49660000  1
  O  O497  1  0.41030000  0.44249000  0.89131000  1
  O  O498  1  0.43921000  0.38892000  0.94581000  1
  O  O499  1  0.53802000  0.82535000  0.50971000  1
  O  O500  1  0.48101000  0.89131000  0.44882000  1
  O  O501  1  0.57516000  0.95957000  0.39571000  1
  O  O502  1  0.70184000  0.91681000  0.45671000  1
  O  O503  1  0.24661000  0.39738000  0.97935000  1
  O  O504  1  0.21497000  0.46010000  0.91681000  1
  O  O505  1  0.76270000  0.53794000  0.88586000  1
  O  O506  1  0.17492000  0.95857000  0.47549000  1
  O  O507  1  0.26726000  0.02065000  0.41803000  1
  O  O508  1  0.78365000  0.48308000  0.95857000  1
  O  O509  1  0.29820000  0.92529000  0.53961000  1
  O  O510  1  0.55771000  0.54720000  0.92643000  1
  O  O511  1  0.61559000  0.43614000  0.04043000  1
  O  O512  1  0.40353000  0.98490000  0.49209000  1
  O  O513  1  0.58137000  0.49281000  0.98490000  1
  O  O514  1  0.28219000  0.09011000  0.40446000  1
  O  O515  1  0.49340000  0.05419000  0.44311000  1
  O  O516  1  0.50660000  0.94581000  0.55689000  1
  O  O517  1  0.71781000  0.90989000  0.59554000  1
  O  O518  1  0.41863000  0.50719000  0.01510000  1
  O  O519  1  0.59647000  0.01510000  0.50791000  1
  O  O520  1  0.38441000  0.56386000  0.95957000  1
  O  O521  1  0.44229000  0.45280000  0.07357000  1
  O  O522  1  0.70180000  0.07471000  0.46039000  1
  O  O523  1  0.21635000  0.51692000  0.04143000  1
  O  O524  1  0.73274000  0.97935000  0.58197000  1
  O  O525  1  0.82508000  0.04143000  0.52451000  1
  O  O526  1  0.23730000  0.46206000  0.11414000  1
  O  O527  1  0.78503000  0.53990000  0.08319000  1
  O  O528  1  0.75339000  0.60262000  0.02065000  1
  O  O529  1  0.29816000  0.08319000  0.54329000  1
  O  O530  1  0.42484000  0.04043000  0.60429000  1
  O  O531  1  0.51899000  0.10869000  0.55118000  1
  O  O532  1  0.46198000  0.17465000  0.49029000  1
  O  O533  1  0.56079000  0.61108000  0.05419000  1
  O  O534  1  0.58970000  0.55751000  0.10869000  1
  O  O535  1  0.62157000  0.17231000  0.50340000  1
  O  O536  1  0.29418000  0.15324000  0.53390000  1
  O  O537  1  0.37291000  0.61432000  0.07471000  1
  O  O538  1  0.40222000  0.56028000  0.12968000  1
  O  O539  1  0.63128000  0.07357000  0.62077000  1
  O  O540  1  0.72746000  0.12968000  0.56940000  1
  O  O541  1  0.20087000  0.54444000  0.15647000  1
  O  O542  1  0.12227000  0.40446000  0.31435000  1
  O  O543  1  0.87684000  0.11414000  0.65208000  1
  O  O544  1  0.95560000  0.15647000  0.61203000  1
  O  O545  1  0.85906000  0.61934000  0.15324000  1
  O  O546  1  0.80792000  0.68565000  0.09011000  1
  O  O547  1  0.02831000  0.49029000  0.31564000  1
  O  O548  1  0.22476000  0.34792000  0.46206000  1
  O  O549  1  0.15077000  0.41803000  0.39738000  1
  O  O550  1  0.82055000  0.39571000  0.43614000  1
  O  O551  1  0.94971000  0.44311000  0.38892000  1
  O  O552  1  0.01051000  0.37923000  0.45280000  1
  O  O553  1  0.88183000  0.50340000  0.33109000  1
  O  O554  1  0.55074000  0.66891000  0.17231000  1
  O  O555  1  0.75859000  0.46039000  0.38568000  1
  O  O556  1  0.71267000  0.68436000  0.17465000  1
  O  O557  1  0.23972000  0.53390000  0.38066000  1
  O  O558  1  0.34357000  0.38797000  0.54444000  1
  O  O559  1  0.15806000  0.43060000  0.56028000  1
  O  O560  1  0.30057000  0.47549000  0.51692000  1
  O  O561  1  0.03219000  0.55118000  0.44249000  1
  O  O562  1  0.75487000  0.45671000  0.53990000  1
  O  O563  1  0.08856000  0.49209000  0.50719000  1
