# generated using pymatgen
data_CuH8C6N8O
_symmetry_space_group_name_H-M   'P 1'
_cell_length_a   7.90250000
_cell_length_b   12.35500000
_cell_length_c   12.35500000
_cell_angle_alpha   90.00000000
_cell_angle_beta   90.00000000
_cell_angle_gamma   90.00000000
_symmetry_Int_Tables_number   1
_chemical_formula_structural   CuH8C6N8O
_chemical_formula_sum   'Cu4 H32 C24 N32 O4'
_cell_volume   1206.28521256
_cell_formula_units_Z   4
loop_
 _symmetry_equiv_pos_site_id
 _symmetry_equiv_pos_as_xyz
  1  'x, y, z'
loop_
 _atom_site_type_symbol
 _atom_site_label
 _atom_site_symmetry_multiplicity
 _atom_site_fract_x
 _atom_site_fract_y
 _atom_site_fract_z
 _atom_site_occupancy
  Cu  Cu0  1  0.21648000  0.98475000  0.32318000  1
  Cu  Cu1  1  0.46648000  0.67682000  0.98475000  1
  Cu  Cu2  1  0.71648000  0.01525000  0.67682000  1
  Cu  Cu3  1  0.96648000  0.32318000  0.01525000  1
  H  H4  1  0.03410000  0.63470000  0.84160000  1
  H  H5  1  0.04840000  0.70600000  0.22810000  1
  H  H6  1  0.06070000  0.84120000  0.50950000  1
  H  H7  1  0.06810000  0.89330000  0.09810000  1
  H  H8  1  0.10280000  0.77600000  0.05540000  1
  H  H9  1  0.12110000  0.45350000  0.84300000  1
  H  H10  1  0.14040000  0.81540000  0.76980000  1
  H  H11  1  0.14500000  0.60880000  0.73920000  1
  H  H12  1  0.28410000  0.15840000  0.63470000  1
  H  H13  1  0.29840000  0.77190000  0.70600000  1
  H  H14  1  0.31070000  0.49050000  0.84120000  1
  H  H15  1  0.31810000  0.90190000  0.89330000  1
  H  H16  1  0.35280000  0.94460000  0.77600000  1
  H  H17  1  0.37110000  0.15700000  0.45350000  1
  H  H18  1  0.39040000  0.23020000  0.81540000  1
  H  H19  1  0.39500000  0.26080000  0.60880000  1
  H  H20  1  0.53410000  0.36530000  0.15840000  1
  H  H21  1  0.54840000  0.29400000  0.77190000  1
  H  H22  1  0.56070000  0.15880000  0.49050000  1
  H  H23  1  0.56810000  0.10670000  0.90190000  1
  H  H24  1  0.60280000  0.22400000  0.94460000  1
  H  H25  1  0.62110000  0.54650000  0.15700000  1
  H  H26  1  0.64040000  0.18460000  0.23020000  1
  H  H27  1  0.64500000  0.39120000  0.26080000  1
  H  H28  1  0.78410000  0.84160000  0.36530000  1
  H  H29  1  0.79840000  0.22810000  0.29400000  1
  H  H30  1  0.81070000  0.50950000  0.15880000  1
  H  H31  1  0.81810000  0.09810000  0.10670000  1
  H  H32  1  0.85280000  0.05540000  0.22400000  1
  H  H33  1  0.87110000  0.84300000  0.54650000  1
  H  H34  1  0.89040000  0.76980000  0.18460000  1
  H  H35  1  0.89500000  0.73920000  0.39120000  1
  C  C36  1  0.00680000  0.77710000  0.20830000  1
  C  C37  1  0.04590000  0.14580000  0.16500000  1
  C  C38  1  0.11280000  0.82290000  0.11800000  1
  C  C39  1  0.14700000  0.61550000  0.81750000  1
  C  C40  1  0.19870000  0.50930000  0.86720000  1
  C  C41  1  0.20090000  0.51070000  0.98770000  1
  C  C42  1  0.25680000  0.79170000  0.77710000  1
  C  C43  1  0.29590000  0.83500000  0.14580000  1
  C  C44  1  0.36280000  0.88200000  0.82290000  1
  C  C45  1  0.39700000  0.18250000  0.61550000  1
  C  C46  1  0.44870000  0.13280000  0.50930000  1
  C  C47  1  0.45090000  0.01230000  0.51070000  1
  C  C48  1  0.50680000  0.22290000  0.79170000  1
  C  C49  1  0.54590000  0.85420000  0.83500000  1
  C  C50  1  0.61280000  0.17710000  0.88200000  1
  C  C51  1  0.64700000  0.38450000  0.18250000  1
  C  C52  1  0.69870000  0.49070000  0.13280000  1
  C  C53  1  0.70090000  0.48930000  0.01230000  1
  C  C54  1  0.75680000  0.20830000  0.22290000  1
  C  C55  1  0.79590000  0.16500000  0.85420000  1
  C  C56  1  0.86280000  0.11800000  0.17710000  1
  C  C57  1  0.89700000  0.81750000  0.38450000  1
  C  C58  1  0.94870000  0.86720000  0.49070000  1
  C  C59  1  0.95090000  0.98770000  0.48930000  1
  N  N60  1  0.01660000  0.15090000  0.44400000  1
  N  N61  1  0.02510000  0.10810000  0.77500000  1
  N  N62  1  0.04740000  0.04570000  0.42220000  1
  N  N63  1  0.07020000  0.17260000  0.85400000  1
  N  N64  1  0.10370000  0.22540000  0.10070000  1
  N  N65  1  0.11400000  0.44820000  0.05350000  1
  N  N66  1  0.15780000  0.47760000  0.15680000  1
  N  N67  1  0.17750000  0.09520000  0.21040000  1
  N  N68  1  0.26660000  0.55600000  0.15090000  1
  N  N69  1  0.27510000  0.22500000  0.10810000  1
  N  N70  1  0.29740000  0.57780000  0.04570000  1
  N  N71  1  0.32020000  0.14600000  0.17260000  1
  N  N72  1  0.35370000  0.89930000  0.22540000  1
  N  N73  1  0.36400000  0.94650000  0.44820000  1
  N  N74  1  0.40780000  0.84320000  0.47760000  1
  N  N75  1  0.42750000  0.78960000  0.09520000  1
  N  N76  1  0.51660000  0.84910000  0.55600000  1
  N  N77  1  0.52510000  0.89190000  0.22500000  1
  N  N78  1  0.54740000  0.95430000  0.57780000  1
  N  N79  1  0.57020000  0.82740000  0.14600000  1
  N  N80  1  0.60370000  0.77460000  0.89930000  1
  N  N81  1  0.61400000  0.55180000  0.94650000  1
  N  N82  1  0.65780000  0.52240000  0.84320000  1
  N  N83  1  0.67750000  0.90480000  0.78960000  1
  N  N84  1  0.76660000  0.44400000  0.84910000  1
  N  N85  1  0.77510000  0.77500000  0.89190000  1
  N  N86  1  0.79740000  0.42220000  0.95430000  1
  N  N87  1  0.82020000  0.85400000  0.82740000  1
  N  N88  1  0.85370000  0.10070000  0.77460000  1
  N  N89  1  0.86400000  0.05350000  0.55180000  1
  N  N90  1  0.90780000  0.15680000  0.52240000  1
  N  N91  1  0.92750000  0.21040000  0.90480000  1
  O  O92  1  0.01500000  0.84870000  0.30100000  1
  O  O93  1  0.26500000  0.69900000  0.84870000  1
  O  O94  1  0.51500000  0.15130000  0.69900000  1
  O  O95  1  0.76500000  0.30100000  0.15130000  1
