# generated using pymatgen
data_Cu4H28C57O16
_symmetry_space_group_name_H-M   'P 1'
_cell_length_a   18.90000000
_cell_length_b   18.90000000
_cell_length_c   33.56100000
_cell_angle_alpha   90.00000000
_cell_angle_beta   90.00000000
_cell_angle_gamma   90.00000000
_symmetry_Int_Tables_number   1
_chemical_formula_structural   Cu4H28C57O16
_chemical_formula_sum   'Cu16 H112 C228 O64'
_cell_volume   11988.32481000
_cell_formula_units_Z   4
loop_
 _symmetry_equiv_pos_site_id
 _symmetry_equiv_pos_as_xyz
  1  'x, y, z'
loop_
 _atom_site_type_symbol
 _atom_site_label
 _atom_site_symmetry_multiplicity
 _atom_site_fract_x
 _atom_site_fract_y
 _atom_site_fract_z
 _atom_site_occupancy
  Cu  Cu0  1  0.01492000  0.04988000  0.21962000  1
  Cu  Cu1  1  0.01492000  0.45012000  0.71962000  1
  Cu  Cu2  1  0.04988000  0.01492000  0.71962000  1
  Cu  Cu3  1  0.04988000  0.48508000  0.21962000  1
  Cu  Cu4  1  0.45012000  0.01492000  0.21962000  1
  Cu  Cu5  1  0.45012000  0.48508000  0.71962000  1
  Cu  Cu6  1  0.48508000  0.04988000  0.71962000  1
  Cu  Cu7  1  0.48508000  0.45012000  0.21962000  1
  Cu  Cu8  1  0.51492000  0.54988000  0.78038000  1
  Cu  Cu9  1  0.51492000  0.95012000  0.28038000  1
  Cu  Cu10  1  0.54988000  0.51492000  0.28038000  1
  Cu  Cu11  1  0.54988000  0.98508000  0.78038000  1
  Cu  Cu12  1  0.95012000  0.51492000  0.78038000  1
  Cu  Cu13  1  0.95012000  0.98508000  0.28038000  1
  Cu  Cu14  1  0.98508000  0.54988000  0.28038000  1
  Cu  Cu15  1  0.98508000  0.95012000  0.78038000  1
  H  H16  1  0.00960000  0.23110000  0.76120000  1
  H  H17  1  0.00960000  0.26890000  0.26120000  1
  H  H18  1  0.05050000  0.62460000  0.64250000  1
  H  H19  1  0.05050000  0.87540000  0.14250000  1
  H  H20  1  0.06890000  0.67370000  0.07900000  1
  H  H21  1  0.06890000  0.82630000  0.57900000  1
  H  H22  1  0.07230000  0.66520000  0.14550000  1
  H  H23  1  0.07230000  0.83480000  0.64550000  1
  H  H24  1  0.12460000  0.55050000  0.85750000  1
  H  H25  1  0.12460000  0.94950000  0.35750000  1
  H  H26  1  0.13000000  0.64140000  0.90030000  1
  H  H27  1  0.13000000  0.85860000  0.40030000  1
  H  H28  1  0.13820000  0.71460000  0.95440000  1
  H  H29  1  0.13820000  0.78540000  0.45440000  1
  H  H30  1  0.13990000  0.66620000  0.02370000  1
  H  H31  1  0.13990000  0.83380000  0.52370000  1
  H  H32  1  0.14140000  0.63000000  0.59970000  1
  H  H33  1  0.14140000  0.87000000  0.09970000  1
  H  H34  1  0.16520000  0.57230000  0.35450000  1
  H  H35  1  0.16520000  0.92770000  0.85450000  1
  H  H36  1  0.16620000  0.63990000  0.47630000  1
  H  H37  1  0.16620000  0.86010000  0.97630000  1
  H  H38  1  0.17370000  0.56890000  0.42100000  1
  H  H39  1  0.17370000  0.93110000  0.92100000  1
  H  H40  1  0.21460000  0.63820000  0.54560000  1
  H  H41  1  0.21460000  0.86180000  0.04560000  1
  H  H42  1  0.23110000  0.00960000  0.26120000  1
  H  H43  1  0.23110000  0.49040000  0.76120000  1
  H  H44  1  0.26890000  0.00960000  0.76120000  1
  H  H45  1  0.26890000  0.49040000  0.26120000  1
  H  H46  1  0.28540000  0.63820000  0.04560000  1
  H  H47  1  0.28540000  0.86180000  0.54560000  1
  H  H48  1  0.32630000  0.56890000  0.92100000  1
  H  H49  1  0.32630000  0.93110000  0.42100000  1
  H  H50  1  0.33380000  0.63990000  0.97630000  1
  H  H51  1  0.33380000  0.86010000  0.47630000  1
  H  H52  1  0.33480000  0.57230000  0.85450000  1
  H  H53  1  0.33480000  0.92770000  0.35450000  1
  H  H54  1  0.35860000  0.63000000  0.09970000  1
  H  H55  1  0.35860000  0.87000000  0.59970000  1
  H  H56  1  0.36010000  0.66620000  0.52370000  1
  H  H57  1  0.36010000  0.83380000  0.02370000  1
  H  H58  1  0.36180000  0.71460000  0.45440000  1
  H  H59  1  0.36180000  0.78540000  0.95440000  1
  H  H60  1  0.37000000  0.64140000  0.40030000  1
  H  H61  1  0.37000000  0.85860000  0.90030000  1
  H  H62  1  0.37540000  0.55050000  0.35750000  1
  H  H63  1  0.37540000  0.94950000  0.85750000  1
  H  H64  1  0.42770000  0.66520000  0.64550000  1
  H  H65  1  0.42770000  0.83480000  0.14550000  1
  H  H66  1  0.43110000  0.67370000  0.57900000  1
  H  H67  1  0.43110000  0.82630000  0.07900000  1
  H  H68  1  0.44950000  0.62460000  0.14250000  1
  H  H69  1  0.44950000  0.87540000  0.64250000  1
  H  H70  1  0.49040000  0.23110000  0.26120000  1
  H  H71  1  0.49040000  0.26890000  0.76120000  1
  H  H72  1  0.50960000  0.73110000  0.23880000  1
  H  H73  1  0.50960000  0.76890000  0.73880000  1
  H  H74  1  0.55050000  0.12460000  0.35750000  1
  H  H75  1  0.55050000  0.37540000  0.85750000  1
  H  H76  1  0.56890000  0.17370000  0.92100000  1
  H  H77  1  0.56890000  0.32630000  0.42100000  1
  H  H78  1  0.57230000  0.16520000  0.85450000  1
  H  H79  1  0.57230000  0.33480000  0.35450000  1
  H  H80  1  0.62460000  0.05050000  0.14250000  1
  H  H81  1  0.62460000  0.44950000  0.64250000  1
  H  H82  1  0.63000000  0.14140000  0.09970000  1
  H  H83  1  0.63000000  0.35860000  0.59970000  1
  H  H84  1  0.63820000  0.21460000  0.04560000  1
  H  H85  1  0.63820000  0.28540000  0.54560000  1
  H  H86  1  0.63990000  0.16620000  0.97630000  1
  H  H87  1  0.63990000  0.33380000  0.47630000  1
  H  H88  1  0.64140000  0.13000000  0.40030000  1
  H  H89  1  0.64140000  0.37000000  0.90030000  1
  H  H90  1  0.66520000  0.07230000  0.64550000  1
  H  H91  1  0.66520000  0.42770000  0.14550000  1
  H  H92  1  0.66620000  0.13990000  0.52370000  1
  H  H93  1  0.66620000  0.36010000  0.02370000  1
  H  H94  1  0.67370000  0.06890000  0.57900000  1
  H  H95  1  0.67370000  0.43110000  0.07900000  1
  H  H96  1  0.71460000  0.13820000  0.45440000  1
  H  H97  1  0.71460000  0.36180000  0.95440000  1
  H  H98  1  0.73110000  0.50960000  0.73880000  1
  H  H99  1  0.73110000  0.99040000  0.23880000  1
  H  H100  1  0.76890000  0.50960000  0.23880000  1
  H  H101  1  0.76890000  0.99040000  0.73880000  1
  H  H102  1  0.78540000  0.13820000  0.95440000  1
  H  H103  1  0.78540000  0.36180000  0.45440000  1
  H  H104  1  0.82630000  0.06890000  0.07900000  1
  H  H105  1  0.82630000  0.43110000  0.57900000  1
  H  H106  1  0.83380000  0.13990000  0.02370000  1
  H  H107  1  0.83380000  0.36010000  0.52370000  1
  H  H108  1  0.83480000  0.07230000  0.14550000  1
  H  H109  1  0.83480000  0.42770000  0.64550000  1
  H  H110  1  0.85860000  0.13000000  0.90030000  1
  H  H111  1  0.85860000  0.37000000  0.40030000  1
  H  H112  1  0.86010000  0.16620000  0.47630000  1
  H  H113  1  0.86010000  0.33380000  0.97630000  1
  H  H114  1  0.86180000  0.21460000  0.54560000  1
  H  H115  1  0.86180000  0.28540000  0.04560000  1
  H  H116  1  0.87000000  0.14140000  0.59970000  1
  H  H117  1  0.87000000  0.35860000  0.09970000  1
  H  H118  1  0.87540000  0.05050000  0.64250000  1
  H  H119  1  0.87540000  0.44950000  0.14250000  1
  H  H120  1  0.92770000  0.16520000  0.35450000  1
  H  H121  1  0.92770000  0.33480000  0.85450000  1
  H  H122  1  0.93110000  0.17370000  0.42100000  1
  H  H123  1  0.93110000  0.32630000  0.92100000  1
  H  H124  1  0.94950000  0.12460000  0.85750000  1
  H  H125  1  0.94950000  0.37540000  0.35750000  1
  H  H126  1  0.99040000  0.73110000  0.73880000  1
  H  H127  1  0.99040000  0.76890000  0.23880000  1
  C  C128  1  0.00190000  0.59930000  0.71502000  1
  C  C129  1  0.00190000  0.90070000  0.21502000  1
  C  C130  1  0.01040000  0.73080000  0.71349000  1
  C  C131  1  0.01040000  0.76920000  0.21349000  1
  C  C132  1  0.01830000  0.66690000  0.69437000  1
  C  C133  1  0.01830000  0.83310000  0.19437000  1
  C  C134  1  0.02670000  0.63720000  0.21828000  1
  C  C135  1  0.02670000  0.86280000  0.71828000  1
  C  C136  1  0.03070000  0.70510000  0.19661000  1
  C  C137  1  0.03070000  0.79490000  0.69661000  1
  C  C138  1  0.04580000  0.66730000  0.65591000  1
  C  C139  1  0.04580000  0.83270000  0.15591000  1
  C  C140  1  0.05860000  0.70720000  0.15777000  1
  C  C141  1  0.05860000  0.79280000  0.65777000  1
  C  C142  1  0.06600000  0.72860000  0.63707000  1
  C  C143  1  0.06600000  0.77140000  0.13707000  1
  C  C144  1  0.09930000  0.50190000  0.78498000  1
  C  C145  1  0.09930000  0.99810000  0.28498000  1
  C  C146  1  0.09940000  0.71090000  0.07296000  1
  C  C147  1  0.09940000  0.78910000  0.57296000  1
  C  C148  1  0.10130000  0.72940000  0.59799000  1
  C  C149  1  0.10130000  0.77060000  0.09799000  1
  C  C150  1  0.13720000  0.52670000  0.28172000  1
  C  C151  1  0.13720000  0.97330000  0.78172000  1
  C  C152  1  0.14210000  0.70650000  0.03951000  1
  C  C153  1  0.14210000  0.79350000  0.53951000  1
  C  C154  1  0.14300000  0.67210000  0.58543000  1
  C  C155  1  0.14300000  0.82790000  0.08543000  1
  C  C156  1  0.16690000  0.51830000  0.80563000  1
  C  C157  1  0.16690000  0.98170000  0.30563000  1
  C  C158  1  0.16730000  0.54580000  0.84409000  1
  C  C159  1  0.16730000  0.95420000  0.34409000  1
  C  C160  1  0.17210000  0.64300000  0.91457000  1
  C  C161  1  0.17210000  0.85700000  0.41457000  1
  C  C162  1  0.17670000  0.68630000  0.94756000  1
  C  C163  1  0.17670000  0.81370000  0.44756000  1
  C  C164  1  0.18630000  0.67670000  0.55244000  1
  C  C165  1  0.18630000  0.82330000  0.05244000  1
  C  C166  1  0.18860000  0.73840000  0.52890000  1
  C  C167  1  0.18860000  0.76160000  0.02890000  1
  C  C168  1  0.20510000  0.53070000  0.30339000  1
  C  C169  1  0.20510000  0.96930000  0.80339000  1
  C  C170  1  0.20650000  0.64210000  0.46049000  1
  C  C171  1  0.20650000  0.85790000  0.96049000  1
  C  C172  1  0.20720000  0.55860000  0.34223000  1
  C  C173  1  0.20720000  0.94140000  0.84223000  1
  C  C174  1  0.21090000  0.59940000  0.42704000  1
  C  C175  1  0.21090000  0.90060000  0.92704000  1
  C  C176  1  0.22860000  0.56600000  0.86293000  1
  C  C177  1  0.22860000  0.93400000  0.36293000  1
  C  C178  1  0.22940000  0.60130000  0.90201000  1
  C  C179  1  0.22940000  0.89870000  0.40201000  1
  C  C180  1  0.23080000  0.51040000  0.78651000  1
  C  C181  1  0.23080000  0.98960000  0.28651000  1
  C  C182  1  0.23840000  0.68860000  0.97110000  1
  C  C183  1  0.23840000  0.81140000  0.47110000  1
  C  C184  1  0.25000000  0.75000000  0.00000000  1
  C  C185  1  0.25000000  0.75000000  0.50000000  1
  C  C186  1  0.26160000  0.68860000  0.47110000  1
  C  C187  1  0.26160000  0.81140000  0.97110000  1
  C  C188  1  0.26920000  0.51040000  0.28651000  1
  C  C189  1  0.26920000  0.98960000  0.78651000  1
  C  C190  1  0.27060000  0.60130000  0.40201000  1
  C  C191  1  0.27060000  0.89870000  0.90201000  1
  C  C192  1  0.27140000  0.56600000  0.36293000  1
  C  C193  1  0.27140000  0.93400000  0.86293000  1
  C  C194  1  0.28910000  0.59940000  0.92704000  1
  C  C195  1  0.28910000  0.90060000  0.42704000  1
  C  C196  1  0.29280000  0.55860000  0.84223000  1
  C  C197  1  0.29280000  0.94140000  0.34223000  1
  C  C198  1  0.29350000  0.64210000  0.96049000  1
  C  C199  1  0.29350000  0.85790000  0.46049000  1
  C  C200  1  0.29490000  0.53070000  0.80339000  1
  C  C201  1  0.29490000  0.96930000  0.30339000  1
  C  C202  1  0.31140000  0.73840000  0.02890000  1
  C  C203  1  0.31140000  0.76160000  0.52890000  1
  C  C204  1  0.31370000  0.67670000  0.05244000  1
  C  C205  1  0.31370000  0.82330000  0.55244000  1
  C  C206  1  0.32330000  0.68630000  0.44756000  1
  C  C207  1  0.32330000  0.81370000  0.94756000  1
  C  C208  1  0.32790000  0.64300000  0.41457000  1
  C  C209  1  0.32790000  0.85700000  0.91457000  1
  C  C210  1  0.33270000  0.54580000  0.34409000  1
  C  C211  1  0.33270000  0.95420000  0.84409000  1
  C  C212  1  0.33310000  0.51830000  0.30563000  1
  C  C213  1  0.33310000  0.98170000  0.80563000  1
  C  C214  1  0.35700000  0.67210000  0.08543000  1
  C  C215  1  0.35700000  0.82790000  0.58543000  1
  C  C216  1  0.35790000  0.70650000  0.53951000  1
  C  C217  1  0.35790000  0.79350000  0.03951000  1
  C  C218  1  0.36280000  0.52670000  0.78172000  1
  C  C219  1  0.36280000  0.97330000  0.28172000  1
  C  C220  1  0.39870000  0.72940000  0.09799000  1
  C  C221  1  0.39870000  0.77060000  0.59799000  1
  C  C222  1  0.40060000  0.71090000  0.57296000  1
  C  C223  1  0.40060000  0.78910000  0.07296000  1
  C  C224  1  0.40070000  0.50190000  0.28498000  1
  C  C225  1  0.40070000  0.99810000  0.78498000  1
  C  C226  1  0.43400000  0.72860000  0.13707000  1
  C  C227  1  0.43400000  0.77140000  0.63707000  1
  C  C228  1  0.44140000  0.70720000  0.65777000  1
  C  C229  1  0.44140000  0.79280000  0.15777000  1
  C  C230  1  0.45420000  0.66730000  0.15591000  1
  C  C231  1  0.45420000  0.83270000  0.65591000  1
  C  C232  1  0.46930000  0.70510000  0.69661000  1
  C  C233  1  0.46930000  0.79490000  0.19661000  1
  C  C234  1  0.47330000  0.63720000  0.71828000  1
  C  C235  1  0.47330000  0.86280000  0.21828000  1
  C  C236  1  0.48170000  0.66690000  0.19437000  1
  C  C237  1  0.48170000  0.83310000  0.69437000  1
  C  C238  1  0.48960000  0.73080000  0.21349000  1
  C  C239  1  0.48960000  0.76920000  0.71349000  1
  C  C240  1  0.49810000  0.59930000  0.21502000  1
  C  C241  1  0.49810000  0.90070000  0.71502000  1
  C  C242  1  0.50190000  0.09930000  0.28498000  1
  C  C243  1  0.50190000  0.40070000  0.78498000  1
  C  C244  1  0.51040000  0.23080000  0.28651000  1
  C  C245  1  0.51040000  0.26920000  0.78651000  1
  C  C246  1  0.51830000  0.16690000  0.30563000  1
  C  C247  1  0.51830000  0.33310000  0.80563000  1
  C  C248  1  0.52670000  0.13720000  0.78172000  1
  C  C249  1  0.52670000  0.36280000  0.28172000  1
  C  C250  1  0.53070000  0.20510000  0.80339000  1
  C  C251  1  0.53070000  0.29490000  0.30339000  1
  C  C252  1  0.54580000  0.16730000  0.34409000  1
  C  C253  1  0.54580000  0.33270000  0.84409000  1
  C  C254  1  0.55860000  0.20720000  0.84223000  1
  C  C255  1  0.55860000  0.29280000  0.34223000  1
  C  C256  1  0.56600000  0.22860000  0.36293000  1
  C  C257  1  0.56600000  0.27140000  0.86293000  1
  C  C258  1  0.59930000  0.00190000  0.21502000  1
  C  C259  1  0.59930000  0.49810000  0.71502000  1
  C  C260  1  0.59940000  0.21090000  0.92704000  1
  C  C261  1  0.59940000  0.28910000  0.42704000  1
  C  C262  1  0.60130000  0.22940000  0.40201000  1
  C  C263  1  0.60130000  0.27060000  0.90201000  1
  C  C264  1  0.63720000  0.02670000  0.71828000  1
  C  C265  1  0.63720000  0.47330000  0.21828000  1
  C  C266  1  0.64210000  0.20650000  0.96049000  1
  C  C267  1  0.64210000  0.29350000  0.46049000  1
  C  C268  1  0.64300000  0.17210000  0.41457000  1
  C  C269  1  0.64300000  0.32790000  0.91457000  1
  C  C270  1  0.66690000  0.01830000  0.19437000  1
  C  C271  1  0.66690000  0.48170000  0.69437000  1
  C  C272  1  0.66730000  0.04580000  0.15591000  1
  C  C273  1  0.66730000  0.45420000  0.65591000  1
  C  C274  1  0.67210000  0.14300000  0.08543000  1
  C  C275  1  0.67210000  0.35700000  0.58543000  1
  C  C276  1  0.67670000  0.18630000  0.05244000  1
  C  C277  1  0.67670000  0.31370000  0.55244000  1
  C  C278  1  0.68630000  0.17670000  0.44756000  1
  C  C279  1  0.68630000  0.32330000  0.94756000  1
  C  C280  1  0.68860000  0.23840000  0.47110000  1
  C  C281  1  0.68860000  0.26160000  0.97110000  1
  C  C282  1  0.70510000  0.03070000  0.69661000  1
  C  C283  1  0.70510000  0.46930000  0.19661000  1
  C  C284  1  0.70650000  0.14210000  0.53951000  1
  C  C285  1  0.70650000  0.35790000  0.03951000  1
  C  C286  1  0.70720000  0.05860000  0.65777000  1
  C  C287  1  0.70720000  0.44140000  0.15777000  1
  C  C288  1  0.71090000  0.09940000  0.57296000  1
  C  C289  1  0.71090000  0.40060000  0.07296000  1
  C  C290  1  0.72860000  0.06600000  0.13707000  1
  C  C291  1  0.72860000  0.43400000  0.63707000  1
  C  C292  1  0.72940000  0.10130000  0.09799000  1
  C  C293  1  0.72940000  0.39870000  0.59799000  1
  C  C294  1  0.73080000  0.01040000  0.21349000  1
  C  C295  1  0.73080000  0.48960000  0.71349000  1
  C  C296  1  0.73840000  0.18860000  0.02890000  1
  C  C297  1  0.73840000  0.31140000  0.52890000  1
  C  C298  1  0.75000000  0.25000000  0.00000000  1
  C  C299  1  0.75000000  0.25000000  0.50000000  1
  C  C300  1  0.76160000  0.18860000  0.52890000  1
  C  C301  1  0.76160000  0.31140000  0.02890000  1
  C  C302  1  0.76920000  0.01040000  0.71349000  1
  C  C303  1  0.76920000  0.48960000  0.21349000  1
  C  C304  1  0.77060000  0.10130000  0.59799000  1
  C  C305  1  0.77060000  0.39870000  0.09799000  1
  C  C306  1  0.77140000  0.06600000  0.63707000  1
  C  C307  1  0.77140000  0.43400000  0.13707000  1
  C  C308  1  0.78910000  0.09940000  0.07296000  1
  C  C309  1  0.78910000  0.40060000  0.57296000  1
  C  C310  1  0.79280000  0.05860000  0.15777000  1
  C  C311  1  0.79280000  0.44140000  0.65777000  1
  C  C312  1  0.79350000  0.14210000  0.03951000  1
  C  C313  1  0.79350000  0.35790000  0.53951000  1
  C  C314  1  0.79490000  0.03070000  0.19661000  1
  C  C315  1  0.79490000  0.46930000  0.69661000  1
  C  C316  1  0.81140000  0.23840000  0.97110000  1
  C  C317  1  0.81140000  0.26160000  0.47110000  1
  C  C318  1  0.81370000  0.17670000  0.94756000  1
  C  C319  1  0.81370000  0.32330000  0.44756000  1
  C  C320  1  0.82330000  0.18630000  0.55244000  1
  C  C321  1  0.82330000  0.31370000  0.05244000  1
  C  C322  1  0.82790000  0.14300000  0.58543000  1
  C  C323  1  0.82790000  0.35700000  0.08543000  1
  C  C324  1  0.83270000  0.04580000  0.65591000  1
  C  C325  1  0.83270000  0.45420000  0.15591000  1
  C  C326  1  0.83310000  0.01830000  0.69437000  1
  C  C327  1  0.83310000  0.48170000  0.19437000  1
  C  C328  1  0.85700000  0.17210000  0.91457000  1
  C  C329  1  0.85700000  0.32790000  0.41457000  1
  C  C330  1  0.85790000  0.20650000  0.46049000  1
  C  C331  1  0.85790000  0.29350000  0.96049000  1
  C  C332  1  0.86280000  0.02670000  0.21828000  1
  C  C333  1  0.86280000  0.47330000  0.71828000  1
  C  C334  1  0.89870000  0.22940000  0.90201000  1
  C  C335  1  0.89870000  0.27060000  0.40201000  1
  C  C336  1  0.90060000  0.21090000  0.42704000  1
  C  C337  1  0.90060000  0.28910000  0.92704000  1
  C  C338  1  0.90070000  0.00190000  0.71502000  1
  C  C339  1  0.90070000  0.49810000  0.21502000  1
  C  C340  1  0.93400000  0.22860000  0.86293000  1
  C  C341  1  0.93400000  0.27140000  0.36293000  1
  C  C342  1  0.94140000  0.20720000  0.34223000  1
  C  C343  1  0.94140000  0.29280000  0.84223000  1
  C  C344  1  0.95420000  0.16730000  0.84409000  1
  C  C345  1  0.95420000  0.33270000  0.34409000  1
  C  C346  1  0.96930000  0.20510000  0.30339000  1
  C  C347  1  0.96930000  0.29490000  0.80339000  1
  C  C348  1  0.97330000  0.13720000  0.28172000  1
  C  C349  1  0.97330000  0.36280000  0.78172000  1
  C  C350  1  0.98170000  0.16690000  0.80563000  1
  C  C351  1  0.98170000  0.33310000  0.30563000  1
  C  C352  1  0.98960000  0.23080000  0.78651000  1
  C  C353  1  0.98960000  0.26920000  0.28651000  1
  C  C354  1  0.99810000  0.09930000  0.78498000  1
  C  C355  1  0.99810000  0.40070000  0.28498000  1
  O  O356  1  0.00547000  0.13711000  0.24841000  1
  O  O357  1  0.00547000  0.36289000  0.74841000  1
  O  O358  1  0.02024000  0.54262000  0.69561000  1
  O  O359  1  0.02024000  0.95738000  0.19561000  1
  O  O360  1  0.02585000  0.10066000  0.75124000  1
  O  O361  1  0.02585000  0.39934000  0.25124000  1
  O  O362  1  0.04262000  0.52024000  0.80439000  1
  O  O363  1  0.04262000  0.97976000  0.30439000  1
  O  O364  1  0.05577000  0.58454000  0.20193000  1
  O  O365  1  0.05577000  0.91546000  0.70193000  1
  O  O366  1  0.08454000  0.55577000  0.29807000  1
  O  O367  1  0.08454000  0.94423000  0.79807000  1
  O  O368  1  0.10066000  0.02585000  0.25124000  1
  O  O369  1  0.10066000  0.47415000  0.75124000  1
  O  O370  1  0.13711000  0.00547000  0.74841000  1
  O  O371  1  0.13711000  0.49453000  0.24841000  1
  O  O372  1  0.36289000  0.00547000  0.24841000  1
  O  O373  1  0.36289000  0.49453000  0.74841000  1
  O  O374  1  0.39934000  0.02585000  0.75124000  1
  O  O375  1  0.39934000  0.47415000  0.25124000  1
  O  O376  1  0.41546000  0.55577000  0.79807000  1
  O  O377  1  0.41546000  0.94423000  0.29807000  1
  O  O378  1  0.44423000  0.58454000  0.70193000  1
  O  O379  1  0.44423000  0.91546000  0.20193000  1
  O  O380  1  0.45738000  0.52024000  0.30439000  1
  O  O381  1  0.45738000  0.97976000  0.80439000  1
  O  O382  1  0.47415000  0.10066000  0.25124000  1
  O  O383  1  0.47415000  0.39934000  0.75124000  1
  O  O384  1  0.47976000  0.54262000  0.19561000  1
  O  O385  1  0.47976000  0.95738000  0.69561000  1
  O  O386  1  0.49453000  0.13711000  0.74841000  1
  O  O387  1  0.49453000  0.36289000  0.24841000  1
  O  O388  1  0.50547000  0.63711000  0.75159000  1
  O  O389  1  0.50547000  0.86289000  0.25159000  1
  O  O390  1  0.52024000  0.04262000  0.30439000  1
  O  O391  1  0.52024000  0.45738000  0.80439000  1
  O  O392  1  0.52585000  0.60066000  0.24876000  1
  O  O393  1  0.52585000  0.89934000  0.74876000  1
  O  O394  1  0.54262000  0.02024000  0.19561000  1
  O  O395  1  0.54262000  0.47976000  0.69561000  1
  O  O396  1  0.55577000  0.08454000  0.79807000  1
  O  O397  1  0.55577000  0.41546000  0.29807000  1
  O  O398  1  0.58454000  0.05577000  0.70193000  1
  O  O399  1  0.58454000  0.44423000  0.20193000  1
  O  O400  1  0.60066000  0.52585000  0.74876000  1
  O  O401  1  0.60066000  0.97415000  0.24876000  1
  O  O402  1  0.63711000  0.50547000  0.25159000  1
  O  O403  1  0.63711000  0.99453000  0.75159000  1
  O  O404  1  0.86289000  0.50547000  0.75159000  1
  O  O405  1  0.86289000  0.99453000  0.25159000  1
  O  O406  1  0.89934000  0.52585000  0.24876000  1
  O  O407  1  0.89934000  0.97415000  0.74876000  1
  O  O408  1  0.91546000  0.05577000  0.20193000  1
  O  O409  1  0.91546000  0.44423000  0.70193000  1
  O  O410  1  0.94423000  0.08454000  0.29807000  1
  O  O411  1  0.94423000  0.41546000  0.79807000  1
  O  O412  1  0.95738000  0.02024000  0.69561000  1
  O  O413  1  0.95738000  0.47976000  0.19561000  1
  O  O414  1  0.97415000  0.60066000  0.74876000  1
  O  O415  1  0.97415000  0.89934000  0.24876000  1
  O  O416  1  0.97976000  0.04262000  0.80439000  1
  O  O417  1  0.97976000  0.45738000  0.30439000  1
  O  O418  1  0.99453000  0.63711000  0.25159000  1
  O  O419  1  0.99453000  0.86289000  0.75159000  1
