# generated using pymatgen
data_CuH8C14O5
_symmetry_space_group_name_H-M   'P 1'
_cell_length_a   16.08530000
_cell_length_b   17.41690000
_cell_length_c   19.36670000
_cell_angle_alpha   69.09000000
_cell_angle_beta   65.46300000
_cell_angle_gamma   62.49850000
_symmetry_Int_Tables_number   1
_chemical_formula_structural   CuH8C14O5
_chemical_formula_sum   'Cu8 H64 C112 O40'
_cell_volume   4285.31443135
_cell_formula_units_Z   8
loop_
 _symmetry_equiv_pos_site_id
 _symmetry_equiv_pos_as_xyz
  1  'x, y, z'
loop_
 _atom_site_type_symbol
 _atom_site_label
 _atom_site_symmetry_multiplicity
 _atom_site_fract_x
 _atom_site_fract_y
 _atom_site_fract_z
 _atom_site_occupancy
  Cu  Cu0  1  0.06012000  0.44424000  0.95244000  1
  Cu  Cu1  1  0.45680000  0.05576000  0.54756000  1
  Cu  Cu2  1  0.48330000  0.07572000  0.95022000  1
  Cu  Cu3  1  0.49076000  0.57572000  0.45022000  1
  Cu  Cu4  1  0.50924000  0.42428000  0.54978000  1
  Cu  Cu5  1  0.51670000  0.92428000  0.04978000  1
  Cu  Cu6  1  0.54320000  0.94424000  0.45244000  1
  Cu  Cu7  1  0.93988000  0.55576000  0.04756000  1
  H  H8  1  0.00760000  0.74740000  0.57780000  1
  H  H9  1  0.02590000  0.26670000  0.16110000  1
  H  H10  1  0.04190000  0.55720000  0.77120000  1
  H  H11  1  0.06650000  0.94100000  0.73980000  1
  H  H12  1  0.06930000  0.74600000  0.94520000  1
  H  H13  1  0.07150000  0.02920000  0.30520000  1
  H  H14  1  0.11340000  0.33430000  0.39030000  1
  H  H15  1  0.13010000  0.49010000  0.18250000  1
  H  H16  1  0.16200000  0.83430000  0.89030000  1
  H  H17  1  0.17470000  0.68910000  0.51770000  1
  H  H18  1  0.18270000  0.21390000  0.07710000  1
  H  H19  1  0.19730000  0.99010000  0.68250000  1
  H  H20  1  0.21020000  0.50100000  0.71040000  1
  H  H21  1  0.21360000  0.75290000  0.61310000  1
  H  H22  1  0.23140000  0.16840000  0.24220000  1
  H  H23  1  0.23330000  0.97470000  0.22270000  1
  H  H24  1  0.23950000  0.24600000  0.44520000  1
  H  H25  1  0.25270000  0.44100000  0.23980000  1
  H  H26  1  0.25540000  0.58720000  0.79360000  1
  H  H27  1  0.29910000  0.30110000  0.05410000  1
  H  H28  1  0.33280000  0.75260000  0.92220000  1
  H  H29  1  0.34570000  0.80110000  0.55410000  1
  H  H30  1  0.35800000  0.66840000  0.74220000  1
  H  H31  1  0.36380000  0.08720000  0.29360000  1
  H  H32  1  0.37030000  0.94280000  0.72880000  1
  H  H33  1  0.38150000  0.81090000  0.98230000  1
  H  H34  1  0.40590000  0.47080000  0.19480000  1
  H  H35  1  0.42040000  0.25290000  0.11310000  1
  H  H36  1  0.42160000  0.99900000  0.78960000  1
  H  H37  1  0.43070000  0.52530000  0.27730000  1
  H  H38  1  0.45370000  0.23330000  0.33890000  1
  H  H39  1  0.47370000  0.28610000  0.42290000  1
  H  H40  1  0.52630000  0.71390000  0.57710000  1
  H  H41  1  0.54630000  0.76670000  0.66110000  1
  H  H42  1  0.56930000  0.47470000  0.72270000  1
  H  H43  1  0.57840000  0.00100000  0.21040000  1
  H  H44  1  0.57960000  0.74710000  0.88690000  1
  H  H45  1  0.59410000  0.52920000  0.80520000  1
  H  H46  1  0.61850000  0.18910000  0.01770000  1
  H  H47  1  0.62970000  0.05720000  0.27120000  1
  H  H48  1  0.63620000  0.91280000  0.70640000  1
  H  H49  1  0.64200000  0.33160000  0.25780000  1
  H  H50  1  0.65430000  0.19890000  0.44590000  1
  H  H51  1  0.66720000  0.24740000  0.07780000  1
  H  H52  1  0.70090000  0.69890000  0.94590000  1
  H  H53  1  0.74460000  0.41280000  0.20640000  1
  H  H54  1  0.74730000  0.55900000  0.76020000  1
  H  H55  1  0.76050000  0.75400000  0.55480000  1
  H  H56  1  0.76670000  0.02530000  0.77730000  1
  H  H57  1  0.76860000  0.83160000  0.75780000  1
  H  H58  1  0.78640000  0.24710000  0.38690000  1
  H  H59  1  0.78980000  0.49900000  0.28960000  1
  H  H60  1  0.80270000  0.00990000  0.31750000  1
  H  H61  1  0.81730000  0.78610000  0.92290000  1
  H  H62  1  0.82530000  0.31090000  0.48230000  1
  H  H63  1  0.83800000  0.16570000  0.10970000  1
  H  H64  1  0.86990000  0.50990000  0.81750000  1
  H  H65  1  0.88660000  0.66570000  0.60970000  1
  H  H66  1  0.92850000  0.97080000  0.69480000  1
  H  H67  1  0.93070000  0.25400000  0.05480000  1
  H  H68  1  0.93350000  0.05900000  0.26020000  1
  H  H69  1  0.95810000  0.44280000  0.22880000  1
  H  H70  1  0.97410000  0.73330000  0.83890000  1
  H  H71  1  0.99240000  0.25260000  0.42220000  1
  C  C72  1  0.00970000  0.65970000  0.68250000  1
  C  C73  1  0.03570000  0.15260000  0.24100000  1
  C  C74  1  0.04900000  0.69800000  0.60500000  1
  C  C75  1  0.06810000  0.20710000  0.17350000  1
  C  C76  1  0.06930000  0.58510000  0.72010000  1
  C  C77  1  0.09500000  0.06690000  0.25910000  1
  C  C78  1  0.09510000  0.59950000  0.91550000  1
  C  C79  1  0.12300000  0.91340000  0.70120000  1
  C  C80  1  0.12390000  0.43380000  0.07260000  1
  C  C81  1  0.12730000  0.84550000  0.67850000  1
  C  C82  1  0.12760000  0.73100000  0.90320000  1
  C  C83  1  0.14760000  0.66290000  0.56970000  1
  C  C84  1  0.15460000  0.65670000  0.87530000  1
  C  C85  1  0.15960000  0.25770000  0.31250000  1
  C  C86  1  0.16140000  0.17570000  0.12390000  1
  C  C87  1  0.16280000  0.28250000  0.37190000  1
  C  C88  1  0.16890000  0.55140000  0.68340000  1
  C  C89  1  0.18280000  0.78250000  0.87190000  1
  C  C90  1  0.18940000  0.44200000  0.16760000  1
  C  C91  1  0.19140000  0.03410000  0.20950000  1
  C  C92  1  0.20100000  0.94200000  0.66760000  1
  C  C93  1  0.20170000  0.40120000  0.11260000  1
  C  C94  1  0.20980000  0.58920000  0.60820000  1
  C  C95  1  0.21000000  0.80230000  0.62610000  1
  C  C96  1  0.22510000  0.08880000  0.14120000  1
  C  C97  1  0.23340000  0.18490000  0.28310000  1
  C  C98  1  0.23810000  0.63580000  0.81480000  1
  C  C99  1  0.23820000  0.23100000  0.40320000  1
  C  C100  1  0.26240000  0.41340000  0.20120000  1
  C  C101  1  0.27020000  0.75770000  0.81250000  1
  C  C102  1  0.28450000  0.90120000  0.61260000  1
  C  C103  1  0.28900000  0.83010000  0.59170000  1
  C  C104  1  0.28920000  0.33010000  0.09170000  1
  C  C105  1  0.29860000  0.68490000  0.78310000  1
  C  C106  1  0.31130000  0.13580000  0.31480000  1
  C  C107  1  0.31340000  0.15670000  0.37530000  1
  C  C108  1  0.31780000  0.55430000  0.56930000  1
  C  C109  1  0.32720000  0.05520000  0.09020000  1
  C  C110  1  0.34870000  0.34550000  0.17850000  1
  C  C111  1  0.35190000  0.84030000  0.81750000  1
  C  C112  1  0.35200000  0.80200000  0.89500000  1
  C  C113  1  0.36160000  0.30230000  0.12610000  1
  C  C114  1  0.36970000  0.93380000  0.57260000  1
  C  C115  1  0.37450000  0.91490000  0.77990000  1
  C  C116  1  0.38020000  0.83710000  0.93030000  1
  C  C117  1  0.38990000  0.09950000  0.41550000  1
  C  C118  1  0.40370000  0.94860000  0.81660000  1
  C  C119  1  0.40720000  0.91080000  0.89180000  1
  C  C120  1  0.42100000  0.43310000  0.24090000  1
  C  C121  1  0.42930000  0.34740000  0.25900000  1
  C  C122  1  0.43500000  0.46590000  0.29050000  1
  C  C123  1  0.44140000  0.94570000  0.93070000  1
  C  C124  1  0.44870000  0.29290000  0.32650000  1
  C  C125  1  0.45510000  0.41120000  0.35880000  1
  C  C126  1  0.46100000  0.32430000  0.37610000  1
  C  C127  1  0.47260000  0.44480000  0.40980000  1
  C  C128  1  0.52740000  0.55520000  0.59020000  1
  C  C129  1  0.53900000  0.67570000  0.62390000  1
  C  C130  1  0.54490000  0.58880000  0.64120000  1
  C  C131  1  0.55130000  0.70710000  0.67350000  1
  C  C132  1  0.55860000  0.05430000  0.06930000  1
  C  C133  1  0.56500000  0.53410000  0.70950000  1
  C  C134  1  0.57070000  0.65260000  0.74100000  1
  C  C135  1  0.57900000  0.56690000  0.75910000  1
  C  C136  1  0.59280000  0.08920000  0.10820000  1
  C  C137  1  0.59630000  0.05140000  0.18340000  1
  C  C138  1  0.61010000  0.90050000  0.58450000  1
  C  C139  1  0.61980000  0.16290000  0.06970000  1
  C  C140  1  0.62550000  0.08510000  0.22010000  1
  C  C141  1  0.63030000  0.06620000  0.42740000  1
  C  C142  1  0.63840000  0.69770000  0.87390000  1
  C  C143  1  0.64800000  0.19800000  0.10500000  1
  C  C144  1  0.64810000  0.15970000  0.18250000  1
  C  C145  1  0.65130000  0.65450000  0.82150000  1
  C  C146  1  0.67280000  0.94480000  0.90980000  1
  C  C147  1  0.68220000  0.44570000  0.43070000  1
  C  C148  1  0.68660000  0.84330000  0.62470000  1
  C  C149  1  0.68870000  0.86420000  0.68520000  1
  C  C150  1  0.70140000  0.31510000  0.21690000  1
  C  C151  1  0.71080000  0.66990000  0.90830000  1
  C  C152  1  0.71100000  0.16990000  0.40830000  1
  C  C153  1  0.71550000  0.09880000  0.38740000  1
  C  C154  1  0.72980000  0.24230000  0.18750000  1
  C  C155  1  0.73760000  0.58660000  0.79880000  1
  C  C156  1  0.76180000  0.76900000  0.59680000  1
  C  C157  1  0.76190000  0.36420000  0.18520000  1
  C  C158  1  0.76660000  0.81510000  0.71690000  1
  C  C159  1  0.77490000  0.91120000  0.85880000  1
  C  C160  1  0.79000000  0.19770000  0.37390000  1
  C  C161  1  0.79020000  0.41080000  0.39180000  1
  C  C162  1  0.79830000  0.59880000  0.88740000  1
  C  C163  1  0.79900000  0.05800000  0.33240000  1
  C  C164  1  0.80860000  0.96590000  0.79050000  1
  C  C165  1  0.81060000  0.55800000  0.83240000  1
  C  C166  1  0.81720000  0.21750000  0.12810000  1
  C  C167  1  0.83110000  0.44860000  0.31660000  1
  C  C168  1  0.83720000  0.71750000  0.62810000  1
  C  C169  1  0.83860000  0.82430000  0.87610000  1
  C  C170  1  0.84040000  0.74230000  0.68750000  1
  C  C171  1  0.84540000  0.34330000  0.12470000  1
  C  C172  1  0.85240000  0.33710000  0.43030000  1
  C  C173  1  0.87240000  0.26900000  0.09680000  1
  C  C174  1  0.87270000  0.15450000  0.32150000  1
  C  C175  1  0.87610000  0.56620000  0.92740000  1
  C  C176  1  0.87700000  0.08660000  0.29880000  1
  C  C177  1  0.90490000  0.40050000  0.08450000  1
  C  C178  1  0.90500000  0.93310000  0.74090000  1
  C  C179  1  0.93070000  0.41490000  0.27990000  1
  C  C180  1  0.93190000  0.79290000  0.82650000  1
  C  C181  1  0.95100000  0.30200000  0.39500000  1
  C  C182  1  0.96430000  0.84740000  0.75900000  1
  C  C183  1  0.99030000  0.34030000  0.31750000  1
  O  O184  1  0.02030000  0.62420000  0.97200000  1
  O  O185  1  0.04430000  0.49320000  0.09840000  1
  O  O186  1  0.05610000  0.80820000  0.71060000  1
  O  O187  1  0.08700000  0.30690000  0.27550000  1
  O  O188  1  0.12390000  0.53060000  0.89140000  1
  O  O189  1  0.14670000  0.39830000  0.01730000  1
  O  O190  1  0.33060000  0.80690000  0.77550000  1
  O  O191  1  0.35160000  0.60510000  0.51070000  1
  O  O192  1  0.35280000  0.10580000  0.02740000  1
  O  O193  1  0.36410000  0.99320000  0.59840000  1
  O  O194  1  0.36690000  0.47640000  0.59800000  1
  O  O195  1  0.38089000  0.97752000  0.11230000  1
  O  O196  1  0.38350000  0.12420000  0.47200000  1
  O  O197  1  0.42510000  0.30820000  0.21060000  1
  O  O198  1  0.43770000  0.89830000  0.51730000  1
  O  O199  1  0.44130000  0.02360000  0.90200000  1
  O  O200  1  0.45410000  0.03060000  0.39140000  1
  O  O201  1  0.46740000  0.89490000  0.98930000  1
  O  O202  1  0.47071000  0.52248000  0.38770000  1
  O  O203  1  0.48600000  0.39420000  0.47260000  1
  O  O204  1  0.51400000  0.60580000  0.52740000  1
  O  O205  1  0.52929000  0.47752000  0.61230000  1
  O  O206  1  0.53260000  0.10510000  0.01070000  1
  O  O207  1  0.54590000  0.96940000  0.60860000  1
  O  O208  1  0.55870000  0.97640000  0.09800000  1
  O  O209  1  0.56230000  0.10170000  0.48270000  1
  O  O210  1  0.57490000  0.69180000  0.78940000  1
  O  O211  1  0.61650000  0.87580000  0.52800000  1
  O  O212  1  0.61911000  0.02248000  0.88770000  1
  O  O213  1  0.63310000  0.52360000  0.40200000  1
  O  O214  1  0.63590000  0.00680000  0.40160000  1
  O  O215  1  0.64720000  0.89420000  0.97260000  1
  O  O216  1  0.64840000  0.39490000  0.48930000  1
  O  O217  1  0.66940000  0.19310000  0.22450000  1
  O  O218  1  0.85330000  0.60170000  0.98270000  1
  O  O219  1  0.87610000  0.46940000  0.10860000  1
  O  O220  1  0.91300000  0.69310000  0.72450000  1
  O  O221  1  0.94390000  0.19180000  0.28940000  1
  O  O222  1  0.95570000  0.50680000  0.90160000  1
  O  O223  1  0.97970000  0.37580000  0.02800000  1
