# generated using pymatgen
data_LaCu4H24C36I4(NO2)3
_symmetry_space_group_name_H-M   'P 1'
_cell_length_a   9.77600000
_cell_length_b   16.33700000
_cell_length_c   21.53400000
_cell_angle_alpha   103.82000000
_cell_angle_beta   100.74000000
_cell_angle_gamma   95.87000000
_symmetry_Int_Tables_number   1
_chemical_formula_structural   LaCu4H24C36I4(NO2)3
_chemical_formula_sum   'La2 Cu8 H48 C72 I8 N6 O12'
_cell_volume   3242.07534731
_cell_formula_units_Z   2
loop_
 _symmetry_equiv_pos_site_id
 _symmetry_equiv_pos_as_xyz
  1  'x, y, z'
loop_
 _atom_site_type_symbol
 _atom_site_label
 _atom_site_symmetry_multiplicity
 _atom_site_fract_x
 _atom_site_fract_y
 _atom_site_fract_z
 _atom_site_occupancy
  La  La0  1  0.27874000  0.52002000  0.99834000  1
  La  La1  1  0.72126000  0.47998000  0.00166000  1
  Cu  Cu2  1  0.01122000  0.94095000  0.53717000  1
  Cu  Cu3  1  0.04016000  0.18735000  0.40788000  1
  Cu  Cu4  1  0.18475000  0.05888000  0.38233000  1
  Cu  Cu5  1  0.24850000  0.17421000  0.50142000  1
  Cu  Cu6  1  0.75150000  0.82579000  0.49858000  1
  Cu  Cu7  1  0.81525000  0.94112000  0.61767000  1
  Cu  Cu8  1  0.95984000  0.81265000  0.59212000  1
  Cu  Cu9  1  0.98878000  0.05905000  0.46283000  1
  H  H10  1  0.02850000  0.31360000  0.32680000  1
  H  H11  1  0.07600000  0.62310000  0.36220000  1
  H  H12  1  0.11390000  0.23340000  0.70200000  1
  H  H13  1  0.12340000  0.45710000  0.70770000  1
  H  H14  1  0.13150000  0.62840000  0.73090000  1
  H  H15  1  0.13230000  0.49930000  0.81920000  1
  H  H16  1  0.15000000  0.88720000  0.28050000  1
  H  H17  1  0.18240000  0.32850000  0.80690000  1
  H  H18  1  0.24150000  0.76080000  0.39810000  1
  H  H19  1  0.25470000  0.79570000  0.60460000  1
  H  H20  1  0.26700000  0.61520000  0.21210000  1
  H  H21  1  0.26960000  0.15040000  0.66330000  1
  H  H22  1  0.28400000  0.79570000  0.23540000  1
  H  H23  1  0.28810000  0.42650000  0.25930000  1
  H  H24  1  0.31170000  0.44210000  0.15610000  1
  H  H25  1  0.31250000  0.63410000  0.81560000  1
  H  H26  1  0.33340000  0.32260000  0.62060000  1
  H  H27  1  0.37640000  0.03630000  0.65890000  1
  H  H28  1  0.42810000  0.73780000  0.65900000  1
  H  H29  1  0.44060000  0.74880000  0.17180000  1
  H  H30  1  0.44790000  0.83430000  0.46830000  1
  H  H31  1  0.45600000  0.37080000  0.32000000  1
  H  H32  1  0.46650000  0.60350000  0.30320000  1
  H  H33  1  0.47600000  0.05020000  0.38080000  1
  H  H34  1  0.52400000  0.94980000  0.61920000  1
  H  H35  1  0.53350000  0.39650000  0.69680000  1
  H  H36  1  0.54400000  0.62920000  0.68000000  1
  H  H37  1  0.55210000  0.16570000  0.53170000  1
  H  H38  1  0.55940000  0.25120000  0.82820000  1
  H  H39  1  0.57190000  0.26220000  0.34100000  1
  H  H40  1  0.62360000  0.96370000  0.34110000  1
  H  H41  1  0.66666667  0.67740000  0.37940000  1
  H  H42  1  0.68750000  0.36590000  0.18440000  1
  H  H43  1  0.68830000  0.55790000  0.84390000  1
  H  H44  1  0.71190000  0.57350000  0.74070000  1
  H  H45  1  0.71600000  0.20430000  0.76460000  1
  H  H46  1  0.73040000  0.84960000  0.33670000  1
  H  H47  1  0.73300000  0.38480000  0.78790000  1
  H  H48  1  0.74530000  0.20430000  0.39540000  1
  H  H49  1  0.75850000  0.23920000  0.60190000  1
  H  H50  1  0.81760000  0.67150000  0.19310000  1
  H  H51  1  0.85000000  0.11280000  0.71950000  1
  H  H52  1  0.86770000  0.50070000  0.18080000  1
  H  H53  1  0.86850000  0.37160000  0.26910000  1
  H  H54  1  0.87660000  0.54290000  0.29230000  1
  H  H55  1  0.88610000  0.76660000  0.29800000  1
  H  H56  1  0.92400000  0.37690000  0.63780000  1
  H  H57  1  0.97150000  0.68640000  0.67320000  1
  C  C58  1  0.04550000  0.44230000  0.72400000  1
  C  C59  1  0.05080000  0.46740000  0.79050000  1
  C  C60  1  0.05810000  0.53100000  0.11230000  1
  C  C61  1  0.06510000  0.69770000  0.67060000  1
  C  C62  1  0.06690000  0.55540000  0.18550000  1
  C  C63  1  0.07560000  0.60470000  0.31790000  1
  C  C64  1  0.16140000  0.66210000  0.70520000  1
  C  C65  1  0.18920000  0.60090000  0.22870000  1
  C  C66  1  0.19930000  0.62620000  0.29680000  1
  C  C67  1  0.20330000  0.23720000  0.72760000  1
  C  C68  1  0.22970000  0.76090000  0.63040000  1
  C  C69  1  0.24500000  0.29440000  0.79060000  1
  C  C70  1  0.24740000  0.90290000  0.29290000  1
  C  C71  1  0.29620000  0.18780000  0.70500000  1
  C  C72  1  0.30290000  0.67430000  0.70360000  1
  C  C73  1  0.32680000  0.74280000  0.39270000  1
  C  C74  1  0.32710000  0.84670000  0.26580000  1
  C  C75  1  0.32900000  0.67380000  0.34300000  1
  C  C76  1  0.33580000  0.72640000  0.66350000  1
  C  C77  1  0.36730000  0.41230000  0.24360000  1
  C  C78  1  0.37680000  0.30000000  0.82780000  1
  C  C79  1  0.38330000  0.42420000  0.18220000  1
  C  C80  1  0.39440000  0.62300000  0.80120000  1
  C  C81  1  0.41170000  0.63940000  0.74190000  1
  C  C82  1  0.41640000  0.35920000  0.89360000  1
  C  C83  1  0.42000000  0.30510000  0.61740000  1
  C  C84  1  0.43010000  0.19130000  0.74250000  1
  C  C85  1  0.43660000  0.99780000  0.35150000  1
  C  C86  1  0.45160000  0.78650000  0.43530000  1
  C  C87  1  0.45980000  0.64940000  0.33710000  1
  C  C88  1  0.46840000  0.37980000  0.28020000  1
  C  C89  1  0.46880000  0.57370000  0.90110000  1
  C  C90  1  0.46950000  0.24760000  0.80300000  1
  C  C91  1  0.47320000  0.05410000  0.67210000  1
  C  C92  1  0.47350000  0.86580000  0.28370000  1
  C  C93  1  0.49380000  0.59110000  0.83890000  1
  C  C94  1  0.50620000  0.40890000  0.16110000  1
  C  C95  1  0.52650000  0.13420000  0.71630000  1
  C  C96  1  0.52680000  0.94590000  0.32790000  1
  C  C97  1  0.53050000  0.75240000  0.19700000  1
  C  C98  1  0.53120000  0.42630000  0.09890000  1
  C  C99  1  0.53160000  0.62020000  0.71980000  1
  C  C100  1  0.54020000  0.35060000  0.66290000  1
  C  C101  1  0.54840000  0.21350000  0.56470000  1
  C  C102  1  0.56340000  0.00220000  0.64850000  1
  C  C103  1  0.56990000  0.80870000  0.25750000  1
  C  C104  1  0.58000000  0.69490000  0.38260000  1
  C  C105  1  0.58360000  0.64080000  0.10640000  1
  C  C106  1  0.58830000  0.36060000  0.25810000  1
  C  C107  1  0.60560000  0.37700000  0.19880000  1
  C  C108  1  0.61670000  0.57580000  0.81780000  1
  C  C109  1  0.62320000  0.70000000  0.17220000  1
  C  C110  1  0.63270000  0.58770000  0.75640000  1
  C  C111  1  0.66420000  0.27360000  0.33650000  1
  C  C112  1  0.67100000  0.32620000  0.65700000  1
  C  C113  1  0.67290000  0.15330000  0.73420000  1
  C  C114  1  0.67320000  0.25720000  0.60730000  1
  C  C115  1  0.69710000  0.32570000  0.29640000  1
  C  C116  1  0.70380000  0.81220000  0.29500000  1
  C  C117  1  0.75260000  0.09710000  0.70710000  1
  C  C118  1  0.75500000  0.70560000  0.20940000  1
  C  C119  1  0.77030000  0.23910000  0.36960000  1
  C  C120  1  0.79670000  0.76280000  0.27240000  1
  C  C121  1  0.80070000  0.37380000  0.70320000  1
  C  C122  1  0.81080000  0.39910000  0.77130000  1
  C  C123  1  0.83860000  0.33790000  0.29480000  1
  C  C124  1  0.92440000  0.39530000  0.68210000  1
  C  C125  1  0.93310000  0.44460000  0.81450000  1
  C  C126  1  0.93490000  0.30230000  0.32940000  1
  C  C127  1  0.94190000  0.46900000  0.88770000  1
  C  C128  1  0.94920000  0.53260000  0.20950000  1
  C  C129  1  0.95450000  0.55770000  0.27600000  1
  I  I130  1  0.01765000  0.22328000  0.53421000  1
  I  I131  1  0.08137000  0.97505000  0.66816000  1
  I  I132  1  0.23756000  0.00696000  0.50045000  1
  I  I133  1  0.30128000  0.21780000  0.39288000  1
  I  I134  1  0.69872000  0.78220000  0.60712000  1
  I  I135  1  0.76244000  0.99304000  0.49955000  1
  I  I136  1  0.91863000  0.02495000  0.33184000  1
  I  I137  1  0.98235000  0.77672000  0.46579000  1
  N  N138  1  0.09580000  0.74730000  0.63340000  1
  N  N139  1  0.29700000  0.97880000  0.33570000  1
  N  N140  1  0.42430000  0.23720000  0.56920000  1
  N  N141  1  0.57570000  0.76280000  0.43080000  1
  N  N142  1  0.70300000  0.02120000  0.66430000  1
  N  N143  1  0.90420000  0.25270000  0.36660000  1
  O  O144  1  0.05100000  0.51030000  0.92380000  1
  O  O145  1  0.17020000  0.55490000  0.09420000  1
  O  O146  1  0.32790000  0.40180000  0.91500000  1
  O  O147  1  0.35300000  0.58790000  0.91530000  1
  O  O148  1  0.43850000  0.45250000  0.06440000  1
  O  O149  1  0.45850000  0.63590000  0.07320000  1
  O  O150  1  0.54150000  0.36410000  0.92680000  1
  O  O151  1  0.56150000  0.54750000  0.93560000  1
  O  O152  1  0.64700000  0.41210000  0.08470000  1
  O  O153  1  0.67210000  0.59820000  0.08500000  1
  O  O154  1  0.82980000  0.44510000  0.90580000  1
  O  O155  1  0.94900000  0.48970000  0.07620000  1
