# generated using pymatgen
data_Zn3H64(C53O8)2
_symmetry_space_group_name_H-M   'P 1'
_cell_length_a   20.65360000
_cell_length_b   20.79260000
_cell_length_c   33.49740000
_cell_angle_alpha   90.00000000
_cell_angle_beta   90.00000000
_cell_angle_gamma   118.61900000
_symmetry_Int_Tables_number   1
_chemical_formula_structural   Zn3H64(C53O8)2
_chemical_formula_sum   'Zn6 H128 C212 O32'
_cell_volume   12627.66938623
_cell_formula_units_Z   2
loop_
 _symmetry_equiv_pos_site_id
 _symmetry_equiv_pos_as_xyz
  1  'x, y, z'
loop_
 _atom_site_type_symbol
 _atom_site_label
 _atom_site_symmetry_multiplicity
 _atom_site_fract_x
 _atom_site_fract_y
 _atom_site_fract_z
 _atom_site_occupancy
  Zn  Zn0  1  0.15687000  0.81103000  0.43980000  1
  Zn  Zn1  1  0.25114000  0.99789000  0.47029000  1
  Zn  Zn2  1  0.34719000  0.18262000  0.50174000  1
  Zn  Zn3  1  0.65271000  0.81726000  0.00192000  1
  Zn  Zn4  1  0.74912000  0.00187000  0.96994000  1
  Zn  Zn5  1  0.84293000  0.18873000  0.93992000  1
  H  H6  1  0.00293000  0.88844000  0.58194000  1
  H  H7  1  0.01918000  0.86468000  0.37106000  1
  H  H8  1  0.02046000  0.10380000  0.57540000  1
  H  H9  1  0.02134000  0.37089000  0.34537000  1
  H  H10  1  0.02141000  0.07902000  0.43729000  1
  H  H11  1  0.03856000  0.75120000  0.81566000  1
  H  H12  1  0.04138000  0.49178000  0.34117000  1
  H  H13  1  0.04348000  0.98244000  0.80790000  1
  H  H14  1  0.05427000  0.08314000  0.84290000  1
  H  H15  1  0.07004000  0.46594000  0.96286000  1
  H  H16  1  0.07418000  0.11831000  0.13407000  1
  H  H17  1  0.09003000  0.92823000  0.92508000  1
  H  H18  1  0.09010000  0.02363000  0.46648000  1
  H  H19  1  0.09497000  0.61437000  0.37002000  1
  H  H20  1  0.09757000  0.75545000  0.63228000  1
  H  H21  1  0.10173000  0.97100000  0.05381000  1
  H  H22  1  0.10505000  0.75797000  0.55997000  1
  H  H23  1  0.10698000  0.92402000  0.77787000  1
  H  H24  1  0.12054000  0.58914000  0.93580000  1
  H  H25  1  0.12771000  0.93767000  0.55684000  1
  H  H26  1  0.13312000  0.73611000  0.76279000  1
  H  H27  1  0.14170000  0.73729000  0.69162000  1
  H  H28  1  0.14516000  0.15273000  0.54876000  1
  H  H29  1  0.15387000  0.86860000  0.89513000  1
  H  H30  1  0.19084000  0.66044000  0.88480000  1
  H  H31  1  0.19283000  0.04238000  0.37512000  1
  H  H32  1  0.19696000  0.04814000  0.30300000  1
  H  H33  1  0.20482000  0.17738000  0.14983000  1
  H  H34  1  0.22913000  0.02437000  0.07137000  1
  H  H35  1  0.23993000  0.03038000  0.17443000  1
  H  H36  1  0.24003000  0.02594000  0.24657000  1
  H  H37  1  0.24223000  0.97333000  0.76396000  1
  H  H38  1  0.24805000  0.78323000  0.86151000  1
  H  H39  1  0.24862000  0.97370000  0.69169000  1
  H  H40  1  0.26320000  0.23584000  0.08124000  1
  H  H41  1  0.26495000  0.98504000  0.86661000  1
  H  H42  1  0.29819000  0.83560000  0.78967000  1
  H  H43  1  0.30645000  0.95483000  0.63803000  1
  H  H44  1  0.31182000  0.95924000  0.56550000  1
  H  H45  1  0.33446000  0.35816000  0.05592000  1
  H  H46  1  0.34674000  0.44308000  0.51673000  1
  H  H47  1  0.34828000  0.14119000  0.04487000  1
  H  H48  1  0.35773000  0.84149000  0.39656000  1
  H  H49  1  0.37397000  0.06243000  0.16053000  1
  H  H50  1  0.38057000  0.05858000  0.38742000  1
  H  H51  1  0.38128000  0.26046000  0.25034000  1
  H  H52  1  0.38506000  0.26483000  0.17947000  1
  H  H53  1  0.39147000  0.03882000  0.88760000  1
  H  H54  1  0.40426000  0.48339000  0.07143000  1
  H  H55  1  0.40561000  0.96219000  0.47773000  1
  H  H56  1  0.40857000  0.07917000  0.01403000  1
  H  H57  1  0.40915000  0.23150000  0.38100000  1
  H  H58  1  0.41642000  0.23435000  0.30867000  1
  H  H59  1  0.42132000  0.90316000  0.08764000  1
  H  H60  1  0.42188000  0.56756000  0.54133000  1
  H  H61  1  0.42667000  0.89493000  0.80831000  1
  H  H62  1  0.43275000  0.00024000  0.12930000  1
  H  H63  1  0.46297000  0.24064000  0.12458000  1
  H  H64  1  0.46589000  0.63569000  0.59966000  1
  H  H65  1  0.47730000  0.91138000  0.50770000  1
  H  H66  1  0.47837000  0.60702000  0.04508000  1
  H  H67  1  0.48216000  0.88725000  0.36986000  1
  H  H68  1  0.49429000  0.89507000  0.86352000  1
  H  H69  1  0.49760000  0.85436000  0.05906000  1
  H  H70  1  0.50228000  0.14565000  0.55916000  1
  H  H71  1  0.50567000  0.10511000  0.36363000  1
  H  H72  1  0.51773000  0.11287000  0.86972000  1
  H  H73  1  0.52164000  0.39313000  0.54504000  1
  H  H74  1  0.52268000  0.08871000  0.00770000  1
  H  H75  1  0.53412000  0.36448000  0.09948000  1
  H  H76  1  0.53722000  0.75954000  0.62484000  1
  H  H77  1  0.56724000  0.99963000  0.62922000  1
  H  H78  1  0.57317000  0.10512000  0.30838000  1
  H  H79  1  0.57800000  0.43250000  0.04121000  1
  H  H80  1  0.57884000  0.09692000  0.58762000  1
  H  H81  1  0.58323000  0.76607000  0.80938000  1
  H  H82  1  0.59134000  0.92088000  0.51387000  1
  H  H83  1  0.59148000  0.76940000  0.88159000  1
  H  H84  1  0.59455000  0.03778000  0.97769000  1
  H  H85  1  0.59572000  0.51672000  0.57143000  1
  H  H86  1  0.60833000  0.96117000  0.38761000  1
  H  H87  1  0.61371000  0.73195000  0.68045000  1
  H  H88  1  0.61837000  0.73831000  0.75161000  1
  H  H89  1  0.61954000  0.94172000  0.88728000  1
  H  H90  1  0.62651000  0.93791000  0.66033000  1
  H  H91  1  0.64215000  0.15871000  0.89648000  1
  H  H92  1  0.65182000  0.85891000  0.54464000  1
  H  H93  1  0.65320000  0.55699000  0.01668000  1
  H  H94  1  0.66542000  0.64190000  0.55596000  1
  H  H95  1  0.68867000  0.04144000  0.06548000  1
  H  H96  1  0.69368000  0.04562000  0.13802000  1
  H  H97  1  0.70167000  0.16439000  0.28968000  1
  H  H98  1  0.73486000  0.01493000  0.36664000  1
  H  H99  1  0.73673000  0.76425000  0.58116000  1
  H  H100  1  0.75141000  0.02640000  0.19173000  1
  H  H101  1  0.75190000  0.21681000  0.36152000  1
  H  H102  1  0.75773000  0.02668000  0.26403000  1
  H  H103  1  0.75954000  0.97288000  0.74659000  1
  H  H104  1  0.76031000  0.96941000  0.67471000  1
  H  H105  1  0.77098000  0.97572000  0.57115000  1
  H  H106  1  0.79495000  0.82262000  0.64966000  1
  H  H107  1  0.80297000  0.95191000  0.80289000  1
  H  H108  1  0.80775000  0.95834000  0.87502000  1
  H  H109  1  0.80913000  0.33960000  0.38479000  1
  H  H110  1  0.84611000  0.13141000  0.39515000  1
  H  H111  1  0.85488000  0.84757000  0.04864000  1
  H  H112  1  0.85834000  0.26284000  0.19180000  1
  H  H113  1  0.86686000  0.26391000  0.26292000  1
  H  H114  1  0.87268000  0.06281000  0.05665000  1
  H  H115  1  0.87947000  0.41084000  0.43582000  1
  H  H116  1  0.89304000  0.07601000  0.27790000  1
  H  H117  1  0.89554000  0.24267000  0.06023000  1
  H  H118  1  0.89845000  0.02913000  0.55374000  1
  H  H119  1  0.90263000  0.24492000  0.13257000  1
  H  H120  1  0.90501000  0.38563000  0.87001000  1
  H  H121  1  0.90995000  0.07178000  0.42511000  1
  H  H122  1  0.91014000  0.97637000  0.96634000  1
  H  H123  1  0.92562000  0.88163000  0.63410000  1
  H  H124  1  0.92994000  0.53405000  0.46287000  1
  H  H125  1  0.94599000  0.91697000  0.34299000  1
  H  H126  1  0.95656000  0.01759000  0.30794000  1
  H  H127  1  0.95861000  0.50821000  0.84116000  1
  H  H128  1  0.96139000  0.24878000  0.31567000  1
  H  H129  1  0.97862000  0.62911000  0.84537000  1
  H  H130  1  0.97872000  0.92110000  0.93718000  1
  H  H131  1  0.97963000  0.89641000  0.07516000  1
  H  H132  1  0.98093000  0.13545000  0.87094000  1
  H  H133  1  0.99736000  0.11183000  0.08174000  1
  C  C134  1  0.00121000  0.99188000  0.58034000  1
  C  C135  1  0.01653000  0.58441000  0.41858000  1
  C  C136  1  0.01715000  0.49978000  0.36811000  1
  C  C137  1  0.01889000  0.03136000  0.42281000  1
  C  C138  1  0.01909000  0.91084000  0.38598000  1
  C  C139  1  0.02197000  0.99706000  0.88739000  1
  C  C140  1  0.02231000  0.05861000  0.86955000  1
  C  C141  1  0.03372000  0.94650000  0.57569000  1
  C  C142  1  0.03796000  0.66158000  0.84776000  1
  C  C143  1  0.04327000  0.06696000  0.57140000  1
  C  C144  1  0.04470000  0.55906000  0.88572000  1
  C  C145  1  0.04487000  0.47437000  0.93641000  1
  C  C146  1  0.04756000  0.57040000  0.38447000  1
  C  C147  1  0.04872000  0.65992000  0.43532000  1
  C  C148  1  0.05903000  0.99998000  0.43940000  1
  C  C149  1  0.06073000  0.94034000  0.42079000  1
  C  C150  1  0.06254000  0.96160000  0.86900000  1
  C  C151  1  0.06885000  0.95929000  0.82736000  1
  C  C152  1  0.07223000  0.73223000  0.83125000  1
  C  C153  1  0.07443000  0.54514000  0.92052000  1
  C  C154  1  0.07753000  0.04038000  0.09235000  1
  C  C155  1  0.07969000  0.63415000  0.86767000  1
  C  C156  1  0.09345000  0.92776000  0.89286000  1
  C  C157  1  0.10512000  0.97460000  0.56084000  1
  C  C158  1  0.10636000  0.92549000  0.81002000  1
  C  C159  1  0.10822000  0.09856000  0.11969000  1
  C  C160  1  0.10945000  0.91241000  0.43646000  1
  C  C161  1  0.11483000  0.09508000  0.55633000  1
  C  C162  1  0.12334000  0.01532000  0.07531000  1
  C  C163  1  0.13066000  0.89379000  0.87560000  1
  C  C164  1  0.14051000  0.89408000  0.83387000  1
  C  C165  1  0.14542000  0.79963000  0.61828000  1
  C  C166  1  0.14556000  0.04861000  0.54978000  1
  C  C167  1  0.14918000  0.77861000  0.83468000  1
  C  C168  1  0.14941000  0.80125000  0.57671000  1
  C  C169  1  0.15616000  0.67970000  0.87073000  1
  C  C170  1  0.15619000  0.78888000  0.74837000  1
  C  C171  1  0.16174000  0.78928000  0.70686000  1
  C  C172  1  0.18299000  0.85492000  0.77025000  1
  C  C173  1  0.18326000  0.13224000  0.12886000  1
  C  C174  1  0.18480000  0.85742000  0.81664000  1
  C  C175  1  0.18984000  0.75095000  0.85579000  1
  C  C176  1  0.19493000  0.85545000  0.68554000  1
  C  C177  1  0.19817000  0.04810000  0.08493000  1
  C  C178  1  0.20086000  0.85557000  0.64123000  1
  C  C179  1  0.20711000  0.86575000  0.51318000  1
  C  C180  1  0.20823000  0.85943000  0.55702000  1
  C  C181  1  0.21656000  0.07515000  0.52871000  1
  C  C182  1  0.21813000  0.92119000  0.74851000  1
  C  C183  1  0.22294000  0.92146000  0.70695000  1
  C  C184  1  0.23062000  0.10900000  0.11113000  1
  C  C185  1  0.24159000  0.08495000  0.36089000  1
  C  C186  1  0.24456000  0.08776000  0.31933000  1
  C  C187  1  0.26158000  0.91199000  0.62141000  1
  C  C188  1  0.26512000  0.91408000  0.57978000  1
  C  C189  1  0.26791000  0.90149000  0.82787000  1
  C  C190  1  0.27148000  0.07863000  0.23226000  1
  C  C191  1  0.27239000  0.08097000  0.19061000  1
  C  C192  1  0.28698000  0.92118000  0.41327000  1
  C  C193  1  0.29775000  0.96238000  0.85410000  1
  C  C194  1  0.29875000  0.12988000  0.42764000  1
  C  C195  1  0.30063000  0.13627000  0.38374000  1
  C  C196  1  0.30741000  0.14110000  0.29939000  1
  C  C197  1  0.31078000  0.14289000  0.25485000  1
  C  C198  1  0.31356000  0.14725000  0.12327000  1
  C  C199  1  0.31526000  0.14711000  0.16973000  1
  C  C200  1  0.31754000  0.88064000  0.81064000  1
  C  C201  1  0.32186000  0.26243000  0.08639000  1
  C  C202  1  0.35183000  0.20923000  0.23439000  1
  C  C203  1  0.35247000  0.10570000  0.10538000  1
  C  C204  1  0.35394000  0.21146000  0.19278000  1
  C  C205  1  0.35613000  0.22701000  0.10662000  1
  C  C206  1  0.35938000  0.94668000  0.39405000  1
  C  C207  1  0.36272000  0.19099000  0.36417000  1
  C  C208  1  0.36325000  0.33370000  0.07143000  1
  C  C209  1  0.36568000  0.11013000  0.06384000  1
  C  C210  1  0.36648000  0.19289000  0.32251000  1
  C  C211  1  0.37184000  0.99528000  0.86562000  1
  C  C212  1  0.37838000  0.06565000  0.12847000  1
  C  C213  1  0.38172000  0.33116000  0.51451000  1
  C  C214  1  0.38914000  0.89891000  0.38867000  1
  C  C215  1  0.39141000  0.91420000  0.82166000  1
  C  C216  1  0.39407000  0.08039000  0.50262000  1
  C  C217  1  0.40052000  0.07452000  0.04605000  1
  C  C218  1  0.40119000  0.45854000  0.52832000  1
  C  C219  1  0.40184000  0.02054000  0.38368000  1
  C  C220  1  0.41300000  0.02955000  0.11047000  1
  C  C221  1  0.41903000  0.97042000  0.85011000  1
  C  C222  1  0.42471000  0.03385000  0.06907000  1
  C  C223  1  0.42788000  0.40772000  0.52907000  1
  C  C224  1  0.43389000  0.26570000  0.10990000  1
  C  C225  1  0.44046000  0.37193000  0.07542000  1
  C  C226  1  0.44331000  0.99245000  0.50152000  1
  C  C227  1  0.44410000  0.52987000  0.54292000  1
  C  C228  1  0.44706000  0.05704000  0.51658000  1
  C  C229  1  0.45809000  0.49828000  0.05911000  1
  C  C230  1  0.45934000  0.93329000  0.06381000  1
  C  C231  1  0.46077000  0.92526000  0.37394000  1
  C  C232  1  0.46608000  0.00014000  0.05008000  1
  C  C233  1  0.47350000  0.04703000  0.36967000  1
  C  C234  1  0.47501000  0.33680000  0.09505000  1
  C  C235  1  0.48510000  0.44761000  0.05884000  1
  C  C236  1  0.48534000  0.96373000  0.51846000  1
  C  C237  1  0.49597000  0.00025000  0.86453000  1
  C  C238  1  0.49742000  0.09502000  0.54728000  1
  C  C239  1  0.49902000  0.43054000  0.54435000  1
  C  C240  1  0.50097000  0.56959000  0.04434000  1
  C  C241  1  0.50254000  0.90500000  0.04721000  1
  C  C242  1  0.50397000  0.99990000  0.36466000  1
  C  C243  1  0.51480000  0.55247000  0.55895000  1
  C  C244  1  0.51481000  0.03639000  0.01847000  1
  C  C245  1  0.52501000  0.66331000  0.59525000  1
  C  C246  1  0.52646000  0.95314000  0.86957000  1
  C  C247  1  0.53407000  0.00000000  0.55003000  1
  C  C248  1  0.53914000  0.07488000  0.87386000  1
  C  C249  1  0.54084000  0.06686000  0.56379000  1
  C  C250  1  0.54186000  0.50183000  0.55915000  1
  C  C251  1  0.55273000  0.94277000  0.01638000  1
  C  C252  1  0.55580000  0.47020000  0.04281000  1
  C  C253  1  0.55676000  0.00753000  0.00148000  1
  C  C254  1  0.55947000  0.62815000  0.57555000  1
  C  C255  1  0.56622000  0.73438000  0.61016000  1
  C  C256  1  0.57211000  0.59237000  0.02903000  1
  C  C257  1  0.57533000  0.96620000  0.56895000  1
  C  C258  1  0.58085000  0.02968000  0.35020000  1
  C  C259  1  0.58706000  0.97044000  0.61034000  1
  C  C260  1  0.59804000  0.97963000  0.88372000  1
  C  C261  1  0.59874000  0.54154000  0.02826000  1
  C  C262  1  0.59946000  0.92550000  0.54588000  1
  C  C263  1  0.60549000  0.91888000  0.00229000  1
  C  C264  1  0.60847000  0.08587000  0.32173000  1
  C  C265  1  0.61062000  0.10121000  0.88874000  1
  C  C266  1  0.61831000  0.66893000  0.01451000  1
  C  C267  1  0.62183000  0.93449000  0.62828000  1
  C  C268  1  0.62801000  0.00475000  0.36566000  1
  C  C269  1  0.63344000  0.80757000  0.82297000  1
  C  C270  1  0.63434000  0.88990000  0.56363000  1
  C  C271  1  0.63667000  0.66635000  0.57151000  1
  C  C272  1  0.63776000  0.80953000  0.86455000  1
  C  C273  1  0.64030000  0.05345000  0.89426000  1
  C  C274  1  0.64394000  0.77308000  0.60673000  1
  C  C275  1  0.64434000  0.78547000  0.69374000  1
  C  C276  1  0.64735000  0.78909000  0.73520000  1
  C  C277  1  0.64762000  0.89440000  0.60517000  1
  C  C278  1  0.67810000  0.73763000  0.58644000  1
  C  C279  1  0.68233000  0.11938000  0.31068000  1
  C  C280  1  0.68475000  0.85314000  0.66939000  1
  C  C281  1  0.68656000  0.85298000  0.62306000  1
  C  C282  1  0.68866000  0.85615000  0.75507000  1
  C  C283  1  0.69237000  0.85894000  0.79963000  1
  C  C284  1  0.70013000  0.86387000  0.88392000  1
  C  C285  1  0.70178000  0.86957000  0.92781000  1
  C  C286  1  0.70210000  0.03762000  0.35414000  1
  C  C287  1  0.71273000  0.07908000  0.91347000  1
  C  C288  1  0.72758000  0.91856000  0.69061000  1
  C  C289  1  0.72804000  0.92024000  0.73226000  1
  C  C290  1  0.73196000  0.09852000  0.32791000  1
  C  C291  1  0.73540000  0.08635000  0.07986000  1
  C  C292  1  0.73867000  0.08848000  0.12148000  1
  C  C293  1  0.75547000  0.91250000  0.81938000  1
  C  C294  1  0.75890000  0.91547000  0.86095000  1
  C  C295  1  0.76943000  0.89115000  0.61096000  1
  C  C296  1  0.77709000  0.07864000  0.20701000  1
  C  C297  1  0.78184000  0.07884000  0.24857000  1
  C  C298  1  0.78322000  0.92510000  0.02886000  1
  C  C299  1  0.79245000  0.14069000  0.05712000  1
  C  C300  1  0.79320000  0.13363000  0.01331000  1
  C  C301  1  0.79930000  0.14482000  0.14136000  1
  C  C302  1  0.80195000  0.95203000  0.58476000  1
  C  C303  1  0.80513000  0.14473000  0.18564000  1
  C  C304  1  0.81012000  0.24906000  0.35582000  1
  C  C305  1  0.81509000  0.14255000  0.31670000  1
  C  C306  1  0.81667000  0.86782000  0.62874000  1
  C  C307  1  0.81695000  0.14508000  0.27034000  1
  C  C308  1  0.83830000  0.21082000  0.20700000  1
  C  C309  1  0.84380000  0.21115000  0.24849000  1
  C  C310  1  0.84381000  0.32033000  0.37073000  1
  C  C311  1  0.85078000  0.22136000  0.33474000  1
  C  C312  1  0.85115000  0.19915000  0.07686000  1
  C  C313  1  0.85432000  0.95164000  0.04989000  1
  C  C314  1  0.85486000  0.20082000  0.11848000  1
  C  C315  1  0.85938000  0.10583000  0.33391000  1
  C  C316  1  0.86925000  0.10613000  0.37563000  1
  C  C317  1  0.87680000  0.98480000  0.57524000  1
  C  C318  1  0.88514000  0.90516000  0.05630000  1
  C  C319  1  0.89016000  0.08681000  0.93618000  1
  C  C320  1  0.89172000  0.90148000  0.61966000  1
  C  C321  1  0.89358000  0.07447000  0.31006000  1
  C  C322  1  0.89500000  0.02571000  0.06079000  1
  C  C323  1  0.90651000  0.07221000  0.39289000  1
  C  C324  1  0.92029000  0.36586000  0.36768000  1
  C  C325  1  0.92255000  0.95976000  0.59239000  1
  C  C326  1  0.92556000  0.45486000  0.42053000  1
  C  C327  1  0.92773000  0.26774000  0.33129000  1
  C  C328  1  0.93114000  0.04069000  0.32740000  1
  C  C329  1  0.93751000  0.03845000  0.36905000  1
  C  C330  1  0.93910000  0.05944000  0.92055000  1
  C  C331  1  0.94109000  0.00000000  0.93927000  1
  C  C332  1  0.95130000  0.34007000  0.93531000  1
  C  C333  1  0.95241000  0.42961000  0.88447000  1
  C  C334  1  0.95511000  0.52563000  0.43642000  1
  C  C335  1  0.95528000  0.44095000  0.38574000  1
  C  C336  1  0.95685000  0.93328000  0.07121000  1
  C  C337  1  0.96201000  0.33841000  0.34778000  1
  C  C338  1  0.96649000  0.05377000  0.07552000  1
  C  C339  1  0.97796000  0.94158000  0.36964000  1
  C  C340  1  0.97826000  0.00310000  0.38747000  1
  C  C341  1  0.98097000  0.08922000  0.88585000  1
  C  C342  1  0.98135000  0.96878000  0.92271000  1
  C  C343  1  0.98283000  0.50022000  0.86810000  1
  C  C344  1  0.98343000  0.41559000  0.91857000  1
  C  C345  1  0.99896000  0.00834000  0.08015000  1
  O  O346  1  0.01776000  0.67408000  0.46217000  1
  O  O347  1  0.10918000  0.85682000  0.42022000  1
  O  O348  1  0.11562000  0.71481000  0.42059000  1
  O  O349  1  0.15004000  0.94394000  0.46652000  1
  O  O350  1  0.15690000  0.81417000  0.49292000  1
  O  O351  1  0.23869000  0.02916000  0.51953000  1
  O  O352  1  0.24692000  0.07339000  0.44426000  1
  O  O353  1  0.24934000  0.85425000  0.42271000  1
  O  O354  1  0.25466000  0.14278000  0.51992000  1
  O  O355  1  0.25724000  0.92283000  0.49616000  1
  O  O356  1  0.26361000  0.96652000  0.42092000  1
  O  O357  1  0.32339000  0.31347000  0.49757000  1
  O  O358  1  0.34795000  0.18119000  0.44852000  1
  O  O359  1  0.35145000  0.04621000  0.47346000  1
  O  O360  1  0.39051000  0.13264000  0.52013000  1
  O  O361  1  0.40448000  0.27867000  0.52084000  1
  O  O362  1  0.59549000  0.72134000  0.02089000  1
  O  O363  1  0.60912000  0.86701000  0.02026000  1
  O  O364  1  0.64785000  0.95215000  0.97291000  1
  O  O365  1  0.65240000  0.81844000  0.94864000  1
  O  O366  1  0.67668000  0.68667000  0.99759000  1
  O  O367  1  0.73637000  0.03371000  0.92074000  1
  O  O368  1  0.74303000  0.07617000  0.99646000  1
  O  O369  1  0.74499000  0.85736000  0.02039000  1
  O  O370  1  0.75023000  0.14590000  0.92313000  1
  O  O371  1  0.75353000  0.92582000  0.94451000  1
  O  O372  1  0.76122000  0.97092000  0.01936000  1
  O  O373  1  0.84315000  0.18540000  0.99296000  1
  O  O374  1  0.84941000  0.05459000  0.96612000  1
  O  O375  1  0.88442000  0.28507000  0.92058000  1
  O  O376  1  0.89031000  0.14263000  0.92034000  1
  O  O377  1  0.98232000  0.32598000  0.96216000  1
