# generated using pymatgen
data_Cu6H22C54(N3O8)3
_symmetry_space_group_name_H-M   'P 1'
_cell_length_a   26.95600000
_cell_length_b   26.95600000
_cell_length_c   39.14500000
_cell_angle_alpha   90.00000000
_cell_angle_beta   90.00000000
_cell_angle_gamma   90.00000000
_symmetry_Int_Tables_number   1
_chemical_formula_structural   Cu6H22C54(N3O8)3
_chemical_formula_sum   'Cu48 H176 C432 N72 O192'
_cell_volume   28443.77226472
_cell_formula_units_Z   8
loop_
 _symmetry_equiv_pos_site_id
 _symmetry_equiv_pos_as_xyz
  1  'x, y, z'
loop_
 _atom_site_type_symbol
 _atom_site_label
 _atom_site_symmetry_multiplicity
 _atom_site_fract_x
 _atom_site_fract_y
 _atom_site_fract_z
 _atom_site_occupancy
  Cu  Cu0  1  0.09169000  0.18512000  0.14767000  1
  Cu  Cu1  1  0.09169000  0.18512000  0.85233000  1
  Cu  Cu2  1  0.09331000  0.72556000  0.00000000  1
  Cu  Cu3  1  0.12243000  0.24823000  0.19589000  1
  Cu  Cu4  1  0.12243000  0.24823000  0.80411000  1
  Cu  Cu5  1  0.12396000  0.63164000  0.00000000  1
  Cu  Cu6  1  0.13164000  0.62396000  0.50000000  1
  Cu  Cu7  1  0.18512000  0.90831000  0.14767000  1
  Cu  Cu8  1  0.18512000  0.90831000  0.85233000  1
  Cu  Cu9  1  0.22556000  0.59331000  0.50000000  1
  Cu  Cu10  1  0.24823000  0.87757000  0.19589000  1
  Cu  Cu11  1  0.24823000  0.87757000  0.80411000  1
  Cu  Cu12  1  0.25177000  0.37757000  0.30411000  1
  Cu  Cu13  1  0.25177000  0.37757000  0.69589000  1
  Cu  Cu14  1  0.27444000  0.09331000  0.00000000  1
  Cu  Cu15  1  0.31488000  0.40831000  0.35233000  1
  Cu  Cu16  1  0.31488000  0.40831000  0.64767000  1
  Cu  Cu17  1  0.36836000  0.12396000  0.00000000  1
  Cu  Cu18  1  0.37604000  0.13164000  0.50000000  1
  Cu  Cu19  1  0.37757000  0.74823000  0.30411000  1
  Cu  Cu20  1  0.37757000  0.74823000  0.69589000  1
  Cu  Cu21  1  0.40669000  0.22556000  0.50000000  1
  Cu  Cu22  1  0.40831000  0.68512000  0.35233000  1
  Cu  Cu23  1  0.40831000  0.68512000  0.64767000  1
  Cu  Cu24  1  0.59169000  0.31488000  0.35233000  1
  Cu  Cu25  1  0.59169000  0.31488000  0.64767000  1
  Cu  Cu26  1  0.59331000  0.77444000  0.50000000  1
  Cu  Cu27  1  0.62243000  0.25177000  0.30411000  1
  Cu  Cu28  1  0.62243000  0.25177000  0.69589000  1
  Cu  Cu29  1  0.62396000  0.86836000  0.50000000  1
  Cu  Cu30  1  0.63164000  0.87604000  0.00000000  1
  Cu  Cu31  1  0.68512000  0.59169000  0.35233000  1
  Cu  Cu32  1  0.68512000  0.59169000  0.64767000  1
  Cu  Cu33  1  0.72556000  0.90669000  0.00000000  1
  Cu  Cu34  1  0.74823000  0.62243000  0.30411000  1
  Cu  Cu35  1  0.74823000  0.62243000  0.69589000  1
  Cu  Cu36  1  0.75177000  0.12243000  0.19589000  1
  Cu  Cu37  1  0.75177000  0.12243000  0.80411000  1
  Cu  Cu38  1  0.77444000  0.40669000  0.50000000  1
  Cu  Cu39  1  0.81488000  0.09169000  0.14767000  1
  Cu  Cu40  1  0.81488000  0.09169000  0.85233000  1
  Cu  Cu41  1  0.86836000  0.37604000  0.50000000  1
  Cu  Cu42  1  0.87604000  0.36836000  0.00000000  1
  Cu  Cu43  1  0.87757000  0.75177000  0.19589000  1
  Cu  Cu44  1  0.87757000  0.75177000  0.80411000  1
  Cu  Cu45  1  0.90669000  0.27444000  0.00000000  1
  Cu  Cu46  1  0.90831000  0.81488000  0.14767000  1
  Cu  Cu47  1  0.90831000  0.81488000  0.85233000  1
  H  H48  1  0.00310000  0.76460000  0.26690000  1
  H  H49  1  0.00310000  0.76460000  0.73310000  1
  H  H50  1  0.00560000  0.45640000  0.18210000  1
  H  H51  1  0.00560000  0.45640000  0.81790000  1
  H  H52  1  0.01310000  0.28540000  0.08280000  1
  H  H53  1  0.01310000  0.28540000  0.91720000  1
  H  H54  1  0.02550000  0.75780000  0.32470000  1
  H  H55  1  0.02550000  0.75780000  0.67530000  1
  H  H56  1  0.03170000  0.57390000  0.07970000  1
  H  H57  1  0.03170000  0.57390000  0.92030000  1
  H  H58  1  0.04360000  0.49440000  0.31790000  1
  H  H59  1  0.04360000  0.49440000  0.68210000  1
  H  H60  1  0.05100000  0.38490000  0.15670000  1
  H  H61  1  0.05100000  0.38490000  0.84330000  1
  H  H62  1  0.05400000  0.84080000  0.18560000  1
  H  H63  1  0.05400000  0.84080000  0.81440000  1
  H  H64  1  0.07390000  0.53170000  0.42030000  1
  H  H65  1  0.07390000  0.53170000  0.57970000  1
  H  H66  1  0.11510000  0.44900000  0.34330000  1
  H  H67  1  0.11510000  0.44900000  0.65670000  1
  H  H68  1  0.13470000  0.71370000  0.41160000  1
  H  H69  1  0.13470000  0.71370000  0.58840000  1
  H  H70  1  0.14200000  0.81430000  0.26460000  1
  H  H71  1  0.14200000  0.81430000  0.73540000  1
  H  H72  1  0.15920000  0.05400000  0.18560000  1
  H  H73  1  0.15920000  0.05400000  0.81440000  1
  H  H74  1  0.18570000  0.14200000  0.26460000  1
  H  H75  1  0.18570000  0.14200000  0.73540000  1
  H  H76  1  0.18880000  0.78170000  0.08190000  1
  H  H77  1  0.18880000  0.78170000  0.91810000  1
  H  H78  1  0.21370000  0.63470000  0.08840000  1
  H  H79  1  0.21370000  0.63470000  0.91160000  1
  H  H80  1  0.21460000  0.48690000  0.41720000  1
  H  H81  1  0.21460000  0.48690000  0.58280000  1
  H  H82  1  0.21830000  0.18880000  0.08190000  1
  H  H83  1  0.21830000  0.18880000  0.91810000  1
  H  H84  1  0.22560000  0.75660000  0.33540000  1
  H  H85  1  0.22560000  0.75660000  0.66460000  1
  H  H86  1  0.23540000  0.00310000  0.26690000  1
  H  H87  1  0.23540000  0.00310000  0.73310000  1
  H  H88  1  0.24220000  0.02550000  0.32470000  1
  H  H89  1  0.24220000  0.02550000  0.67530000  1
  H  H90  1  0.24340000  0.22560000  0.33540000  1
  H  H91  1  0.24340000  0.22560000  0.66460000  1
  H  H92  1  0.25660000  0.72560000  0.16460000  1
  H  H93  1  0.25660000  0.72560000  0.83540000  1
  H  H94  1  0.25780000  0.52550000  0.17530000  1
  H  H95  1  0.25780000  0.52550000  0.82470000  1
  H  H96  1  0.26460000  0.50310000  0.23310000  1
  H  H97  1  0.26460000  0.50310000  0.76690000  1
  H  H98  1  0.27440000  0.25660000  0.16460000  1
  H  H99  1  0.27440000  0.25660000  0.83540000  1
  H  H100  1  0.28170000  0.68880000  0.41810000  1
  H  H101  1  0.28170000  0.68880000  0.58190000  1
  H  H102  1  0.28540000  0.98690000  0.08280000  1
  H  H103  1  0.28540000  0.98690000  0.91720000  1
  H  H104  1  0.28630000  0.13470000  0.41160000  1
  H  H105  1  0.28630000  0.13470000  0.58840000  1
  H  H106  1  0.31120000  0.28170000  0.41810000  1
  H  H107  1  0.31120000  0.28170000  0.58190000  1
  H  H108  1  0.31430000  0.64200000  0.23540000  1
  H  H109  1  0.31430000  0.64200000  0.76460000  1
  H  H110  1  0.34080000  0.55400000  0.31440000  1
  H  H111  1  0.34080000  0.55400000  0.68560000  1
  H  H112  1  0.35800000  0.31430000  0.23540000  1
  H  H113  1  0.35800000  0.31430000  0.76460000  1
  H  H114  1  0.36530000  0.21370000  0.08840000  1
  H  H115  1  0.36530000  0.21370000  0.91160000  1
  H  H116  1  0.38490000  0.94900000  0.15670000  1
  H  H117  1  0.38490000  0.94900000  0.84330000  1
  H  H118  1  0.42610000  0.03170000  0.07970000  1
  H  H119  1  0.42610000  0.03170000  0.92030000  1
  H  H120  1  0.44600000  0.34080000  0.31440000  1
  H  H121  1  0.44600000  0.34080000  0.68560000  1
  H  H122  1  0.44900000  0.88490000  0.34330000  1
  H  H123  1  0.44900000  0.88490000  0.65670000  1
  H  H124  1  0.45640000  0.99440000  0.18210000  1
  H  H125  1  0.45640000  0.99440000  0.81790000  1
  H  H126  1  0.46830000  0.07390000  0.42030000  1
  H  H127  1  0.46830000  0.07390000  0.57970000  1
  H  H128  1  0.47450000  0.25780000  0.17530000  1
  H  H129  1  0.47450000  0.25780000  0.82470000  1
  H  H130  1  0.48690000  0.78540000  0.41720000  1
  H  H131  1  0.48690000  0.78540000  0.58280000  1
  H  H132  1  0.49440000  0.95640000  0.31790000  1
  H  H133  1  0.49440000  0.95640000  0.68210000  1
  H  H134  1  0.49690000  0.26460000  0.23310000  1
  H  H135  1  0.49690000  0.26460000  0.76690000  1
  H  H136  1  0.50310000  0.73540000  0.23310000  1
  H  H137  1  0.50310000  0.73540000  0.76690000  1
  H  H138  1  0.50560000  0.04360000  0.31790000  1
  H  H139  1  0.50560000  0.04360000  0.68210000  1
  H  H140  1  0.51310000  0.21460000  0.41720000  1
  H  H141  1  0.51310000  0.21460000  0.58280000  1
  H  H142  1  0.52550000  0.74220000  0.17530000  1
  H  H143  1  0.52550000  0.74220000  0.82470000  1
  H  H144  1  0.53170000  0.92610000  0.42030000  1
  H  H145  1  0.53170000  0.92610000  0.57970000  1
  H  H146  1  0.54360000  0.00560000  0.18210000  1
  H  H147  1  0.54360000  0.00560000  0.81790000  1
  H  H148  1  0.55100000  0.11510000  0.34330000  1
  H  H149  1  0.55100000  0.11510000  0.65670000  1
  H  H150  1  0.55400000  0.65920000  0.31440000  1
  H  H151  1  0.55400000  0.65920000  0.68560000  1
  H  H152  1  0.57390000  0.96830000  0.07970000  1
  H  H153  1  0.57390000  0.96830000  0.92030000  1
  H  H154  1  0.61510000  0.05100000  0.15670000  1
  H  H155  1  0.61510000  0.05100000  0.84330000  1
  H  H156  1  0.63470000  0.78630000  0.08840000  1
  H  H157  1  0.63470000  0.78630000  0.91160000  1
  H  H158  1  0.64200000  0.68570000  0.23540000  1
  H  H159  1  0.64200000  0.68570000  0.76460000  1
  H  H160  1  0.65920000  0.44600000  0.31440000  1
  H  H161  1  0.65920000  0.44600000  0.68560000  1
  H  H162  1  0.68570000  0.35800000  0.23540000  1
  H  H163  1  0.68570000  0.35800000  0.76460000  1
  H  H164  1  0.68880000  0.71830000  0.41810000  1
  H  H165  1  0.68880000  0.71830000  0.58190000  1
  H  H166  1  0.71370000  0.86530000  0.41160000  1
  H  H167  1  0.71370000  0.86530000  0.58840000  1
  H  H168  1  0.71460000  0.01310000  0.08280000  1
  H  H169  1  0.71460000  0.01310000  0.91720000  1
  H  H170  1  0.71830000  0.31120000  0.41810000  1
  H  H171  1  0.71830000  0.31120000  0.58190000  1
  H  H172  1  0.72560000  0.74340000  0.16460000  1
  H  H173  1  0.72560000  0.74340000  0.83540000  1
  H  H174  1  0.73540000  0.49690000  0.23310000  1
  H  H175  1  0.73540000  0.49690000  0.76690000  1
  H  H176  1  0.74220000  0.47450000  0.17530000  1
  H  H177  1  0.74220000  0.47450000  0.82470000  1
  H  H178  1  0.74340000  0.27440000  0.16460000  1
  H  H179  1  0.74340000  0.27440000  0.83540000  1
  H  H180  1  0.75660000  0.77440000  0.33540000  1
  H  H181  1  0.75660000  0.77440000  0.66460000  1
  H  H182  1  0.75780000  0.97450000  0.32470000  1
  H  H183  1  0.75780000  0.97450000  0.67530000  1
  H  H184  1  0.76460000  0.99690000  0.26690000  1
  H  H185  1  0.76460000  0.99690000  0.73310000  1
  H  H186  1  0.77440000  0.24340000  0.33540000  1
  H  H187  1  0.77440000  0.24340000  0.66460000  1
  H  H188  1  0.78170000  0.81120000  0.08190000  1
  H  H189  1  0.78170000  0.81120000  0.91810000  1
  H  H190  1  0.78540000  0.51310000  0.41720000  1
  H  H191  1  0.78540000  0.51310000  0.58280000  1
  H  H192  1  0.78630000  0.36530000  0.08840000  1
  H  H193  1  0.78630000  0.36530000  0.91160000  1
  H  H194  1  0.81120000  0.21830000  0.08190000  1
  H  H195  1  0.81120000  0.21830000  0.91810000  1
  H  H196  1  0.81430000  0.85800000  0.26460000  1
  H  H197  1  0.81430000  0.85800000  0.73540000  1
  H  H198  1  0.84080000  0.94600000  0.18560000  1
  H  H199  1  0.84080000  0.94600000  0.81440000  1
  H  H200  1  0.85800000  0.18570000  0.26460000  1
  H  H201  1  0.85800000  0.18570000  0.73540000  1
  H  H202  1  0.86530000  0.28630000  0.41160000  1
  H  H203  1  0.86530000  0.28630000  0.58840000  1
  H  H204  1  0.88490000  0.55100000  0.34330000  1
  H  H205  1  0.88490000  0.55100000  0.65670000  1
  H  H206  1  0.92610000  0.46830000  0.42030000  1
  H  H207  1  0.92610000  0.46830000  0.57970000  1
  H  H208  1  0.94600000  0.15920000  0.18560000  1
  H  H209  1  0.94600000  0.15920000  0.81440000  1
  H  H210  1  0.94900000  0.61510000  0.15670000  1
  H  H211  1  0.94900000  0.61510000  0.84330000  1
  H  H212  1  0.95640000  0.50560000  0.31790000  1
  H  H213  1  0.95640000  0.50560000  0.68210000  1
  H  H214  1  0.96830000  0.42610000  0.07970000  1
  H  H215  1  0.96830000  0.42610000  0.92030000  1
  H  H216  1  0.97450000  0.24220000  0.32470000  1
  H  H217  1  0.97450000  0.24220000  0.67530000  1
  H  H218  1  0.98690000  0.71460000  0.08280000  1
  H  H219  1  0.98690000  0.71460000  0.91720000  1
  H  H220  1  0.99440000  0.54360000  0.18210000  1
  H  H221  1  0.99440000  0.54360000  0.81790000  1
  H  H222  1  0.99690000  0.23540000  0.26690000  1
  H  H223  1  0.99690000  0.23540000  0.73310000  1
  C  C224  1  0.00380000  0.46100000  0.13240000  1
  C  C225  1  0.00380000  0.46100000  0.86760000  1
  C  C226  1  0.00640000  0.41160000  0.12000000  1
  C  C227  1  0.00640000  0.41160000  0.88000000  1
  C  C228  1  0.01140000  0.31660000  0.09280000  1
  C  C229  1  0.01140000  0.31660000  0.90720000  1
  C  C230  1  0.01570000  0.59930000  0.09150000  1
  C  C231  1  0.01570000  0.59930000  0.90850000  1
  C  C232  1  0.01700000  0.64720000  0.07720000  1
  C  C233  1  0.01700000  0.64720000  0.92280000  1
  C  C234  1  0.02040000  0.80170000  0.22470000  1
  C  C235  1  0.02040000  0.80170000  0.77530000  1
  C  C236  1  0.02810000  0.78230000  0.25600000  1
  C  C237  1  0.02810000  0.78230000  0.74400000  1
  C  C238  1  0.03110000  0.20650000  0.20510000  1
  C  C239  1  0.03110000  0.20650000  0.79490000  1
  C  C240  1  0.03430000  0.37630000  0.13680000  1
  C  C241  1  0.03430000  0.37630000  0.86320000  1
  C  C242  1  0.03810000  0.32510000  0.12370000  1
  C  C243  1  0.03810000  0.32510000  0.87630000  1
  C  C244  1  0.03900000  0.49620000  0.36760000  1
  C  C245  1  0.03900000  0.49620000  0.63240000  1
  C  C246  1  0.04880000  0.66090000  0.04670000  1
  C  C247  1  0.04880000  0.66090000  0.95330000  1
  C  C248  1  0.05950000  0.82740000  0.20720000  1
  C  C249  1  0.05950000  0.82740000  0.79280000  1
  C  C250  1  0.06610000  0.28320000  0.14060000  1
  C  C251  1  0.06610000  0.28320000  0.85940000  1
  C  C252  1  0.07510000  0.78920000  0.27190000  1
  C  C253  1  0.07510000  0.78920000  0.72810000  1
  C  C254  1  0.08840000  0.49360000  0.38000000  1
  C  C255  1  0.08840000  0.49360000  0.62000000  1
  C  C256  1  0.09180000  0.77240000  0.30540000  1
  C  C257  1  0.09180000  0.77240000  0.69460000  1
  C  C258  1  0.09930000  0.51570000  0.40850000  1
  C  C259  1  0.09930000  0.51570000  0.59150000  1
  C  C260  1  0.10510000  0.83220000  0.22250000  1
  C  C261  1  0.10510000  0.83220000  0.77750000  1
  C  C262  1  0.11090000  0.81200000  0.25440000  1
  C  C263  1  0.11090000  0.81200000  0.74560000  1
  C  C264  1  0.12370000  0.46570000  0.36320000  1
  C  C265  1  0.12370000  0.46570000  0.63680000  1
  C  C266  1  0.13110000  0.74900000  0.34660000  1
  C  C267  1  0.13110000  0.74900000  0.65340000  1
  C  C268  1  0.14320000  0.14600000  0.20130000  1
  C  C269  1  0.14320000  0.14600000  0.79870000  1
  C  C270  1  0.14600000  0.85680000  0.20130000  1
  C  C271  1  0.14600000  0.85680000  0.79870000  1
  C  C272  1  0.14720000  0.51700000  0.42280000  1
  C  C273  1  0.14720000  0.51700000  0.57720000  1
  C  C274  1  0.16090000  0.54880000  0.45330000  1
  C  C275  1  0.16090000  0.54880000  0.54670000  1
  C  C276  1  0.16420000  0.69800000  0.04690000  1
  C  C277  1  0.16420000  0.69800000  0.95310000  1
  C  C278  1  0.16600000  0.71450000  0.40150000  1
  C  C279  1  0.16600000  0.71450000  0.59850000  1
  C  C280  1  0.16780000  0.10510000  0.22250000  1
  C  C281  1  0.16780000  0.10510000  0.77750000  1
  C  C282  1  0.17160000  0.73580000  0.36780000  1
  C  C283  1  0.17160000  0.73580000  0.63220000  1
  C  C284  1  0.17260000  0.05950000  0.20720000  1
  C  C285  1  0.17260000  0.05950000  0.79280000  1
  C  C286  1  0.17490000  0.46190000  0.37630000  1
  C  C287  1  0.17490000  0.46190000  0.62370000  1
  C  C288  1  0.18340000  0.48860000  0.40720000  1
  C  C289  1  0.18340000  0.48860000  0.59280000  1
  C  C290  1  0.18550000  0.22280000  0.13940000  1
  C  C291  1  0.18550000  0.22280000  0.86060000  1
  C  C292  1  0.18800000  0.11090000  0.25440000  1
  C  C293  1  0.18800000  0.11090000  0.74560000  1
  C  C294  1  0.19450000  0.70820000  0.08030000  1
  C  C295  1  0.19450000  0.70820000  0.91970000  1
  C  C296  1  0.19800000  0.66420000  0.45310000  1
  C  C297  1  0.19800000  0.66420000  0.54690000  1
  C  C298  1  0.19830000  0.02040000  0.22470000  1
  C  C299  1  0.19830000  0.02040000  0.77530000  1
  C  C300  1  0.20030000  0.75460000  0.09420000  1
  C  C301  1  0.20030000  0.75460000  0.90580000  1
  C  C302  1  0.20650000  0.96890000  0.20510000  1
  C  C303  1  0.20650000  0.96890000  0.79490000  1
  C  C304  1  0.20820000  0.69450000  0.41970000  1
  C  C305  1  0.20820000  0.69450000  0.58030000  1
  C  C306  1  0.21080000  0.07510000  0.27190000  1
  C  C307  1  0.21080000  0.07510000  0.72810000  1
  C  C308  1  0.21450000  0.66600000  0.09850000  1
  C  C309  1  0.21450000  0.66600000  0.90150000  1
  C  C310  1  0.21680000  0.43390000  0.35940000  1
  C  C311  1  0.21680000  0.43390000  0.64060000  1
  C  C312  1  0.21770000  0.02810000  0.25600000  1
  C  C313  1  0.21770000  0.02810000  0.74400000  1
  C  C314  1  0.22010000  0.74070000  0.35610000  1
  C  C315  1  0.22010000  0.74070000  0.64390000  1
  C  C316  1  0.22180000  0.76300000  0.12460000  1
  C  C317  1  0.22180000  0.76300000  0.87540000  1
  C  C318  1  0.22280000  0.81450000  0.13940000  1
  C  C319  1  0.22280000  0.81450000  0.86060000  1
  C  C320  1  0.22760000  0.09180000  0.30540000  1
  C  C321  1  0.22760000  0.09180000  0.69460000  1
  C  C322  1  0.23580000  0.67160000  0.13220000  1
  C  C323  1  0.23580000  0.67160000  0.86780000  1
  C  C324  1  0.23700000  0.22180000  0.12460000  1
  C  C325  1  0.23700000  0.22180000  0.87540000  1
  C  C326  1  0.24070000  0.72010000  0.14390000  1
  C  C327  1  0.24070000  0.72010000  0.85610000  1
  C  C328  1  0.24540000  0.20030000  0.09420000  1
  C  C329  1  0.24540000  0.20030000  0.90580000  1
  C  C330  1  0.24900000  0.63110000  0.15340000  1
  C  C331  1  0.24900000  0.63110000  0.84660000  1
  C  C332  1  0.25100000  0.13110000  0.34660000  1
  C  C333  1  0.25100000  0.13110000  0.65340000  1
  C  C334  1  0.25460000  0.70030000  0.40580000  1
  C  C335  1  0.25460000  0.70030000  0.59420000  1
  C  C336  1  0.25930000  0.22010000  0.35610000  1
  C  C337  1  0.25930000  0.22010000  0.64390000  1
  C  C338  1  0.26300000  0.72180000  0.37540000  1
  C  C339  1  0.26300000  0.72180000  0.62460000  1
  C  C340  1  0.26420000  0.17160000  0.36780000  1
  C  C341  1  0.26420000  0.17160000  0.63220000  1
  C  C342  1  0.27240000  0.59180000  0.19460000  1
  C  C343  1  0.27240000  0.59180000  0.80540000  1
  C  C344  1  0.27720000  0.31450000  0.36060000  1
  C  C345  1  0.27720000  0.31450000  0.63940000  1
  C  C346  1  0.27820000  0.26300000  0.37540000  1
  C  C347  1  0.27820000  0.26300000  0.62460000  1
  C  C348  1  0.27990000  0.24070000  0.14390000  1
  C  C349  1  0.27990000  0.24070000  0.85610000  1
  C  C350  1  0.28230000  0.52810000  0.24400000  1
  C  C351  1  0.28230000  0.52810000  0.75600000  1
  C  C352  1  0.28320000  0.93390000  0.14060000  1
  C  C353  1  0.28320000  0.93390000  0.85940000  1
  C  C354  1  0.28550000  0.16600000  0.40150000  1
  C  C355  1  0.28550000  0.16600000  0.59850000  1
  C  C356  1  0.28920000  0.57510000  0.22810000  1
  C  C357  1  0.28920000  0.57510000  0.77190000  1
  C  C358  1  0.29180000  0.19450000  0.08030000  1
  C  C359  1  0.29180000  0.19450000  0.91970000  1
  C  C360  1  0.29350000  0.46890000  0.29490000  1
  C  C361  1  0.29350000  0.46890000  0.70510000  1
  C  C362  1  0.29970000  0.25460000  0.40580000  1
  C  C363  1  0.29970000  0.25460000  0.59420000  1
  C  C364  1  0.30170000  0.52040000  0.27530000  1
  C  C365  1  0.30170000  0.52040000  0.72470000  1
  C  C366  1  0.30200000  0.16420000  0.04690000  1
  C  C367  1  0.30200000  0.16420000  0.95310000  1
  C  C368  1  0.30550000  0.20820000  0.41970000  1
  C  C369  1  0.30550000  0.20820000  0.58030000  1
  C  C370  1  0.31200000  0.61090000  0.24560000  1
  C  C371  1  0.31200000  0.61090000  0.75440000  1
  C  C372  1  0.31450000  0.72280000  0.36060000  1
  C  C373  1  0.31450000  0.72280000  0.63940000  1
  C  C374  1  0.31660000  0.98860000  0.09280000  1
  C  C375  1  0.31660000  0.98860000  0.90720000  1
  C  C376  1  0.32510000  0.96190000  0.12370000  1
  C  C377  1  0.32510000  0.96190000  0.87630000  1
  C  C378  1  0.32740000  0.55950000  0.29280000  1
  C  C379  1  0.32740000  0.55950000  0.70720000  1
  C  C380  1  0.32840000  0.23580000  0.13220000  1
  C  C381  1  0.32840000  0.23580000  0.86780000  1
  C  C382  1  0.33220000  0.60510000  0.27750000  1
  C  C383  1  0.33220000  0.60510000  0.72250000  1
  C  C384  1  0.33400000  0.21450000  0.09850000  1
  C  C385  1  0.33400000  0.21450000  0.90150000  1
  C  C386  1  0.33580000  0.19800000  0.45310000  1
  C  C387  1  0.33580000  0.19800000  0.54690000  1
  C  C388  1  0.33910000  0.04880000  0.04670000  1
  C  C389  1  0.33910000  0.04880000  0.95330000  1
  C  C390  1  0.35280000  0.01700000  0.07720000  1
  C  C391  1  0.35280000  0.01700000  0.92280000  1
  C  C392  1  0.35400000  0.35680000  0.29870000  1
  C  C393  1  0.35400000  0.35680000  0.70130000  1
  C  C394  1  0.35680000  0.64600000  0.29870000  1
  C  C395  1  0.35680000  0.64600000  0.70130000  1
  C  C396  1  0.36890000  0.24900000  0.15340000  1
  C  C397  1  0.36890000  0.24900000  0.84660000  1
  C  C398  1  0.37630000  0.96570000  0.13680000  1
  C  C399  1  0.37630000  0.96570000  0.86320000  1
  C  C400  1  0.38910000  0.31200000  0.24560000  1
  C  C401  1  0.38910000  0.31200000  0.75440000  1
  C  C402  1  0.39490000  0.33220000  0.27750000  1
  C  C403  1  0.39490000  0.33220000  0.72250000  1
  C  C404  1  0.40070000  0.01570000  0.09150000  1
  C  C405  1  0.40070000  0.01570000  0.90850000  1
  C  C406  1  0.40820000  0.27240000  0.19460000  1
  C  C407  1  0.40820000  0.27240000  0.80540000  1
  C  C408  1  0.41160000  0.99360000  0.12000000  1
  C  C409  1  0.41160000  0.99360000  0.88000000  1
  C  C410  1  0.42490000  0.28920000  0.22810000  1
  C  C411  1  0.42490000  0.28920000  0.77190000  1
  C  C412  1  0.43390000  0.78320000  0.35940000  1
  C  C413  1  0.43390000  0.78320000  0.64060000  1
  C  C414  1  0.44050000  0.32740000  0.29280000  1
  C  C415  1  0.44050000  0.32740000  0.70720000  1
  C  C416  1  0.45120000  0.16090000  0.45330000  1
  C  C417  1  0.45120000  0.16090000  0.54670000  1
  C  C418  1  0.46100000  0.99620000  0.13240000  1
  C  C419  1  0.46100000  0.99620000  0.86760000  1
  C  C420  1  0.46190000  0.82510000  0.37630000  1
  C  C421  1  0.46190000  0.82510000  0.62370000  1
  C  C422  1  0.46570000  0.87630000  0.36320000  1
  C  C423  1  0.46570000  0.87630000  0.63680000  1
  C  C424  1  0.46890000  0.70650000  0.29490000  1
  C  C425  1  0.46890000  0.70650000  0.70510000  1
  C  C426  1  0.47190000  0.28230000  0.24400000  1
  C  C427  1  0.47190000  0.28230000  0.75600000  1
  C  C428  1  0.47960000  0.30170000  0.27530000  1
  C  C429  1  0.47960000  0.30170000  0.72470000  1
  C  C430  1  0.48300000  0.14720000  0.42280000  1
  C  C431  1  0.48300000  0.14720000  0.57720000  1
  C  C432  1  0.48430000  0.09930000  0.40850000  1
  C  C433  1  0.48430000  0.09930000  0.59150000  1
  C  C434  1  0.48860000  0.81660000  0.40720000  1
  C  C435  1  0.48860000  0.81660000  0.59280000  1
  C  C436  1  0.49360000  0.91160000  0.38000000  1
  C  C437  1  0.49360000  0.91160000  0.62000000  1
  C  C438  1  0.49620000  0.96100000  0.36760000  1
  C  C439  1  0.49620000  0.96100000  0.63240000  1
  C  C440  1  0.50380000  0.03900000  0.36760000  1
  C  C441  1  0.50380000  0.03900000  0.63240000  1
  C  C442  1  0.50640000  0.08840000  0.38000000  1
  C  C443  1  0.50640000  0.08840000  0.62000000  1
  C  C444  1  0.51140000  0.18340000  0.40720000  1
  C  C445  1  0.51140000  0.18340000  0.59280000  1
  C  C446  1  0.51570000  0.90070000  0.40850000  1
  C  C447  1  0.51570000  0.90070000  0.59150000  1
  C  C448  1  0.51700000  0.85280000  0.42280000  1
  C  C449  1  0.51700000  0.85280000  0.57720000  1
  C  C450  1  0.52040000  0.69830000  0.27530000  1
  C  C451  1  0.52040000  0.69830000  0.72470000  1
  C  C452  1  0.52810000  0.71770000  0.24400000  1
  C  C453  1  0.52810000  0.71770000  0.75600000  1
  C  C454  1  0.53110000  0.29350000  0.29490000  1
  C  C455  1  0.53110000  0.29350000  0.70510000  1
  C  C456  1  0.53430000  0.12370000  0.36320000  1
  C  C457  1  0.53430000  0.12370000  0.63680000  1
  C  C458  1  0.53810000  0.17490000  0.37630000  1
  C  C459  1  0.53810000  0.17490000  0.62370000  1
  C  C460  1  0.53900000  0.00380000  0.13240000  1
  C  C461  1  0.53900000  0.00380000  0.86760000  1
  C  C462  1  0.54880000  0.83910000  0.45330000  1
  C  C463  1  0.54880000  0.83910000  0.54670000  1
  C  C464  1  0.55950000  0.67260000  0.29280000  1
  C  C465  1  0.55950000  0.67260000  0.70720000  1
  C  C466  1  0.56610000  0.21680000  0.35940000  1
  C  C467  1  0.56610000  0.21680000  0.64060000  1
  C  C468  1  0.57510000  0.71080000  0.22810000  1
  C  C469  1  0.57510000  0.71080000  0.77190000  1
  C  C470  1  0.58840000  0.00640000  0.12000000  1
  C  C471  1  0.58840000  0.00640000  0.88000000  1
  C  C472  1  0.59180000  0.72760000  0.19460000  1
  C  C473  1  0.59180000  0.72760000  0.80540000  1
  C  C474  1  0.59930000  0.98430000  0.09150000  1
  C  C475  1  0.59930000  0.98430000  0.90850000  1
  C  C476  1  0.60510000  0.66780000  0.27750000  1
  C  C477  1  0.60510000  0.66780000  0.72250000  1
  C  C478  1  0.61090000  0.68800000  0.24560000  1
  C  C479  1  0.61090000  0.68800000  0.75440000  1
  C  C480  1  0.62370000  0.03430000  0.13680000  1
  C  C481  1  0.62370000  0.03430000  0.86320000  1
  C  C482  1  0.63110000  0.75100000  0.15340000  1
  C  C483  1  0.63110000  0.75100000  0.84660000  1
  C  C484  1  0.64320000  0.35400000  0.29870000  1
  C  C485  1  0.64320000  0.35400000  0.70130000  1
  C  C486  1  0.64600000  0.64320000  0.29870000  1
  C  C487  1  0.64600000  0.64320000  0.70130000  1
  C  C488  1  0.64720000  0.98300000  0.07720000  1
  C  C489  1  0.64720000  0.98300000  0.92280000  1
  C  C490  1  0.66090000  0.95120000  0.04670000  1
  C  C491  1  0.66090000  0.95120000  0.95330000  1
  C  C492  1  0.66420000  0.80200000  0.45310000  1
  C  C493  1  0.66420000  0.80200000  0.54690000  1
  C  C494  1  0.66600000  0.78550000  0.09850000  1
  C  C495  1  0.66600000  0.78550000  0.90150000  1
  C  C496  1  0.66780000  0.39490000  0.27750000  1
  C  C497  1  0.66780000  0.39490000  0.72250000  1
  C  C498  1  0.67160000  0.76420000  0.13220000  1
  C  C499  1  0.67160000  0.76420000  0.86780000  1
  C  C500  1  0.67260000  0.44050000  0.29280000  1
  C  C501  1  0.67260000  0.44050000  0.70720000  1
  C  C502  1  0.67490000  0.03810000  0.12370000  1
  C  C503  1  0.67490000  0.03810000  0.87630000  1
  C  C504  1  0.68340000  0.01140000  0.09280000  1
  C  C505  1  0.68340000  0.01140000  0.90720000  1
  C  C506  1  0.68550000  0.27720000  0.36060000  1
  C  C507  1  0.68550000  0.27720000  0.63940000  1
  C  C508  1  0.68800000  0.38910000  0.24560000  1
  C  C509  1  0.68800000  0.38910000  0.75440000  1
  C  C510  1  0.69450000  0.79180000  0.41970000  1
  C  C511  1  0.69450000  0.79180000  0.58030000  1
  C  C512  1  0.69800000  0.83580000  0.04690000  1
  C  C513  1  0.69800000  0.83580000  0.95310000  1
  C  C514  1  0.69830000  0.47960000  0.27530000  1
  C  C515  1  0.69830000  0.47960000  0.72470000  1
  C  C516  1  0.70030000  0.74540000  0.40580000  1
  C  C517  1  0.70030000  0.74540000  0.59420000  1
  C  C518  1  0.70650000  0.53110000  0.29490000  1
  C  C519  1  0.70650000  0.53110000  0.70510000  1
  C  C520  1  0.70820000  0.80550000  0.08030000  1
  C  C521  1  0.70820000  0.80550000  0.91970000  1
  C  C522  1  0.71080000  0.42490000  0.22810000  1
  C  C523  1  0.71080000  0.42490000  0.77190000  1
  C  C524  1  0.71450000  0.83400000  0.40150000  1
  C  C525  1  0.71450000  0.83400000  0.59850000  1
  C  C526  1  0.71680000  0.06610000  0.14060000  1
  C  C527  1  0.71680000  0.06610000  0.85940000  1
  C  C528  1  0.71770000  0.47190000  0.24400000  1
  C  C529  1  0.71770000  0.47190000  0.75600000  1
  C  C530  1  0.72010000  0.75930000  0.14390000  1
  C  C531  1  0.72010000  0.75930000  0.85610000  1
  C  C532  1  0.72180000  0.73700000  0.37540000  1
  C  C533  1  0.72180000  0.73700000  0.62460000  1
  C  C534  1  0.72280000  0.68550000  0.36060000  1
  C  C535  1  0.72280000  0.68550000  0.63940000  1
  C  C536  1  0.72760000  0.40820000  0.19460000  1
  C  C537  1  0.72760000  0.40820000  0.80540000  1
  C  C538  1  0.73580000  0.82840000  0.36780000  1
  C  C539  1  0.73580000  0.82840000  0.63220000  1
  C  C540  1  0.73700000  0.27820000  0.37540000  1
  C  C541  1  0.73700000  0.27820000  0.62460000  1
  C  C542  1  0.74070000  0.77990000  0.35610000  1
  C  C543  1  0.74070000  0.77990000  0.64390000  1
  C  C544  1  0.74540000  0.29970000  0.40580000  1
  C  C545  1  0.74540000  0.29970000  0.59420000  1
  C  C546  1  0.74900000  0.86890000  0.34660000  1
  C  C547  1  0.74900000  0.86890000  0.65340000  1
  C  C548  1  0.75100000  0.36890000  0.15340000  1
  C  C549  1  0.75100000  0.36890000  0.84660000  1
  C  C550  1  0.75460000  0.79970000  0.09420000  1
  C  C551  1  0.75460000  0.79970000  0.90580000  1
  C  C552  1  0.75930000  0.27990000  0.14390000  1
  C  C553  1  0.75930000  0.27990000  0.85610000  1
  C  C554  1  0.76300000  0.77820000  0.12460000  1
  C  C555  1  0.76300000  0.77820000  0.87540000  1
  C  C556  1  0.76420000  0.32840000  0.13220000  1
  C  C557  1  0.76420000  0.32840000  0.86780000  1
  C  C558  1  0.77240000  0.90820000  0.30540000  1
  C  C559  1  0.77240000  0.90820000  0.69460000  1
  C  C560  1  0.77720000  0.18550000  0.13940000  1
  C  C561  1  0.77720000  0.18550000  0.86060000  1
  C  C562  1  0.77820000  0.23700000  0.12460000  1
  C  C563  1  0.77820000  0.23700000  0.87540000  1
  C  C564  1  0.77990000  0.25930000  0.35610000  1
  C  C565  1  0.77990000  0.25930000  0.64390000  1
  C  C566  1  0.78230000  0.97190000  0.25600000  1
  C  C567  1  0.78230000  0.97190000  0.74400000  1
  C  C568  1  0.78320000  0.56610000  0.35940000  1
  C  C569  1  0.78320000  0.56610000  0.64060000  1
  C  C570  1  0.78550000  0.33400000  0.09850000  1
  C  C571  1  0.78550000  0.33400000  0.90150000  1
  C  C572  1  0.78920000  0.92490000  0.27190000  1
  C  C573  1  0.78920000  0.92490000  0.72810000  1
  C  C574  1  0.79180000  0.30550000  0.41970000  1
  C  C575  1  0.79180000  0.30550000  0.58030000  1
  C  C576  1  0.79350000  0.03110000  0.20510000  1
  C  C577  1  0.79350000  0.03110000  0.79490000  1
  C  C578  1  0.79970000  0.24540000  0.09420000  1
  C  C579  1  0.79970000  0.24540000  0.90580000  1
  C  C580  1  0.80170000  0.97960000  0.22470000  1
  C  C581  1  0.80170000  0.97960000  0.77530000  1
  C  C582  1  0.80200000  0.33580000  0.45310000  1
  C  C583  1  0.80200000  0.33580000  0.54690000  1
  C  C584  1  0.80550000  0.29180000  0.08030000  1
  C  C585  1  0.80550000  0.29180000  0.91970000  1
  C  C586  1  0.81200000  0.88910000  0.25440000  1
  C  C587  1  0.81200000  0.88910000  0.74560000  1
  C  C588  1  0.81450000  0.77720000  0.13940000  1
  C  C589  1  0.81450000  0.77720000  0.86060000  1
  C  C590  1  0.81660000  0.51140000  0.40720000  1
  C  C591  1  0.81660000  0.51140000  0.59280000  1
  C  C592  1  0.82510000  0.53810000  0.37630000  1
  C  C593  1  0.82510000  0.53810000  0.62370000  1
  C  C594  1  0.82740000  0.94050000  0.20720000  1
  C  C595  1  0.82740000  0.94050000  0.79280000  1
  C  C596  1  0.82840000  0.26420000  0.36780000  1
  C  C597  1  0.82840000  0.26420000  0.63220000  1
  C  C598  1  0.83220000  0.89490000  0.22250000  1
  C  C599  1  0.83220000  0.89490000  0.77750000  1
  C  C600  1  0.83400000  0.28550000  0.40150000  1
  C  C601  1  0.83400000  0.28550000  0.59850000  1
  C  C602  1  0.83580000  0.30200000  0.04690000  1
  C  C603  1  0.83580000  0.30200000  0.95310000  1
  C  C604  1  0.83910000  0.45120000  0.45330000  1
  C  C605  1  0.83910000  0.45120000  0.54670000  1
  C  C606  1  0.85280000  0.48300000  0.42280000  1
  C  C607  1  0.85280000  0.48300000  0.57720000  1
  C  C608  1  0.85400000  0.14320000  0.20130000  1
  C  C609  1  0.85400000  0.14320000  0.79870000  1
  C  C610  1  0.85680000  0.85400000  0.20130000  1
  C  C611  1  0.85680000  0.85400000  0.79870000  1
  C  C612  1  0.86890000  0.25100000  0.34660000  1
  C  C613  1  0.86890000  0.25100000  0.65340000  1
  C  C614  1  0.87630000  0.53430000  0.36320000  1
  C  C615  1  0.87630000  0.53430000  0.63680000  1
  C  C616  1  0.88910000  0.18800000  0.25440000  1
  C  C617  1  0.88910000  0.18800000  0.74560000  1
  C  C618  1  0.89490000  0.16780000  0.22250000  1
  C  C619  1  0.89490000  0.16780000  0.77750000  1
  C  C620  1  0.90070000  0.48430000  0.40850000  1
  C  C621  1  0.90070000  0.48430000  0.59150000  1
  C  C622  1  0.90820000  0.22760000  0.30540000  1
  C  C623  1  0.90820000  0.22760000  0.69460000  1
  C  C624  1  0.91160000  0.50640000  0.38000000  1
  C  C625  1  0.91160000  0.50640000  0.62000000  1
  C  C626  1  0.92490000  0.21080000  0.27190000  1
  C  C627  1  0.92490000  0.21080000  0.72810000  1
  C  C628  1  0.93390000  0.71680000  0.14060000  1
  C  C629  1  0.93390000  0.71680000  0.85940000  1
  C  C630  1  0.94050000  0.17260000  0.20720000  1
  C  C631  1  0.94050000  0.17260000  0.79280000  1
  C  C632  1  0.95120000  0.33910000  0.04670000  1
  C  C633  1  0.95120000  0.33910000  0.95330000  1
  C  C634  1  0.96100000  0.50380000  0.36760000  1
  C  C635  1  0.96100000  0.50380000  0.63240000  1
  C  C636  1  0.96190000  0.67490000  0.12370000  1
  C  C637  1  0.96190000  0.67490000  0.87630000  1
  C  C638  1  0.96570000  0.62370000  0.13680000  1
  C  C639  1  0.96570000  0.62370000  0.86320000  1
  C  C640  1  0.96890000  0.79350000  0.20510000  1
  C  C641  1  0.96890000  0.79350000  0.79490000  1
  C  C642  1  0.97190000  0.21770000  0.25600000  1
  C  C643  1  0.97190000  0.21770000  0.74400000  1
  C  C644  1  0.97960000  0.19830000  0.22470000  1
  C  C645  1  0.97960000  0.19830000  0.77530000  1
  C  C646  1  0.98300000  0.35280000  0.07720000  1
  C  C647  1  0.98300000  0.35280000  0.92280000  1
  C  C648  1  0.98430000  0.40070000  0.09150000  1
  C  C649  1  0.98430000  0.40070000  0.90850000  1
  C  C650  1  0.98860000  0.68340000  0.09280000  1
  C  C651  1  0.98860000  0.68340000  0.90720000  1
  C  C652  1  0.99360000  0.58840000  0.12000000  1
  C  C653  1  0.99360000  0.58840000  0.88000000  1
  C  C654  1  0.99620000  0.53900000  0.13240000  1
  C  C655  1  0.99620000  0.53900000  0.86760000  1
  N  N656  1  0.00000000  0.50000000  0.11170000  1
  N  N657  1  0.00000000  0.50000000  0.38830000  1
  N  N658  1  0.00000000  0.50000000  0.61170000  1
  N  N659  1  0.00000000  0.50000000  0.88830000  1
  N  N660  1  0.00300000  0.47520000  0.16450000  1
  N  N661  1  0.00300000  0.47520000  0.83550000  1
  N  N662  1  0.02480000  0.49700000  0.33550000  1
  N  N663  1  0.02480000  0.49700000  0.66450000  1
  N  N664  1  0.05710000  0.75720000  0.32750000  1
  N  N665  1  0.05710000  0.75720000  0.67250000  1
  N  N666  1  0.08380000  0.73990000  0.35660000  1
  N  N667  1  0.08380000  0.73990000  0.64340000  1
  N  N668  1  0.13510000  0.76540000  0.31690000  1
  N  N669  1  0.13510000  0.76540000  0.68310000  1
  N  N670  1  0.23460000  0.13510000  0.31690000  1
  N  N671  1  0.23460000  0.13510000  0.68310000  1
  N  N672  1  0.23990000  0.58380000  0.14340000  1
  N  N673  1  0.23990000  0.58380000  0.85660000  1
  N  N674  1  0.24280000  0.05710000  0.32750000  1
  N  N675  1  0.24280000  0.05710000  0.67250000  1
  N  N676  1  0.25720000  0.55710000  0.17250000  1
  N  N677  1  0.25720000  0.55710000  0.82750000  1
  N  N678  1  0.26010000  0.08380000  0.35660000  1
  N  N679  1  0.26010000  0.08380000  0.64340000  1
  N  N680  1  0.26540000  0.63510000  0.18310000  1
  N  N681  1  0.26540000  0.63510000  0.81690000  1
  N  N682  1  0.36490000  0.26540000  0.18310000  1
  N  N683  1  0.36490000  0.26540000  0.81690000  1
  N  N684  1  0.41620000  0.23990000  0.14340000  1
  N  N685  1  0.41620000  0.23990000  0.85660000  1
  N  N686  1  0.44290000  0.25720000  0.17250000  1
  N  N687  1  0.44290000  0.25720000  0.82750000  1
  N  N688  1  0.47520000  0.99700000  0.16450000  1
  N  N689  1  0.47520000  0.99700000  0.83550000  1
  N  N690  1  0.49700000  0.97520000  0.33550000  1
  N  N691  1  0.49700000  0.97520000  0.66450000  1
  N  N692  1  0.50000000  0.00000000  0.11170000  1
  N  N693  1  0.50000000  0.00000000  0.38830000  1
  N  N694  1  0.50000000  0.00000000  0.61170000  1
  N  N695  1  0.50000000  0.00000000  0.88830000  1
  N  N696  1  0.50300000  0.02480000  0.33550000  1
  N  N697  1  0.50300000  0.02480000  0.66450000  1
  N  N698  1  0.52480000  0.00300000  0.16450000  1
  N  N699  1  0.52480000  0.00300000  0.83550000  1
  N  N700  1  0.55710000  0.74280000  0.17250000  1
  N  N701  1  0.55710000  0.74280000  0.82750000  1
  N  N702  1  0.58380000  0.76010000  0.14340000  1
  N  N703  1  0.58380000  0.76010000  0.85660000  1
  N  N704  1  0.63510000  0.73460000  0.18310000  1
  N  N705  1  0.63510000  0.73460000  0.81690000  1
  N  N706  1  0.73460000  0.36490000  0.18310000  1
  N  N707  1  0.73460000  0.36490000  0.81690000  1
  N  N708  1  0.73990000  0.91620000  0.35660000  1
  N  N709  1  0.73990000  0.91620000  0.64340000  1
  N  N710  1  0.74280000  0.44290000  0.17250000  1
  N  N711  1  0.74280000  0.44290000  0.82750000  1
  N  N712  1  0.75720000  0.94290000  0.32750000  1
  N  N713  1  0.75720000  0.94290000  0.67250000  1
  N  N714  1  0.76010000  0.41620000  0.14340000  1
  N  N715  1  0.76010000  0.41620000  0.85660000  1
  N  N716  1  0.76540000  0.86490000  0.31690000  1
  N  N717  1  0.76540000  0.86490000  0.68310000  1
  N  N718  1  0.86490000  0.23460000  0.31690000  1
  N  N719  1  0.86490000  0.23460000  0.68310000  1
  N  N720  1  0.91620000  0.26010000  0.35660000  1
  N  N721  1  0.91620000  0.26010000  0.64340000  1
  N  N722  1  0.94290000  0.24280000  0.32750000  1
  N  N723  1  0.94290000  0.24280000  0.67250000  1
  N  N724  1  0.97520000  0.50300000  0.33550000  1
  N  N725  1  0.97520000  0.50300000  0.66450000  1
  N  N726  1  0.99700000  0.52480000  0.16450000  1
  N  N727  1  0.99700000  0.52480000  0.83550000  1
  O  O728  1  0.03560000  0.18030000  0.17854000  1
  O  O729  1  0.03560000  0.18030000  0.82146000  1
  O  O730  1  0.04810000  0.70460000  0.03617000  1
  O  O731  1  0.04810000  0.70460000  0.96383000  1
  O  O732  1  0.06080000  0.23620000  0.21865000  1
  O  O733  1  0.06080000  0.23620000  0.78135000  1
  O  O734  1  0.06240000  0.24220000  0.12828000  1
  O  O735  1  0.06240000  0.24220000  0.87172000  1
  O  O736  1  0.07390000  0.62320000  0.03561000  1
  O  O737  1  0.07390000  0.62320000  0.96439000  1
  O  O738  1  0.09030000  0.29720000  0.16668000  1
  O  O739  1  0.09030000  0.29720000  0.83332000  1
  O  O740  1  0.12320000  0.57390000  0.46439000  1
  O  O741  1  0.12320000  0.57390000  0.53561000  1
  O  O742  1  0.12460000  0.13520000  0.17423000  1
  O  O743  1  0.12460000  0.13520000  0.82577000  1
  O  O744  1  0.13520000  0.87540000  0.17423000  1
  O  O745  1  0.13520000  0.87540000  0.82577000  1
  O  O746  1  0.14200000  0.73290000  0.03554000  1
  O  O747  1  0.14200000  0.73290000  0.96446000  1
  O  O748  1  0.14590000  0.18710000  0.21593000  1
  O  O749  1  0.14590000  0.18710000  0.78407000  1
  O  O750  1  0.15360000  0.66830000  0.46435000  1
  O  O751  1  0.15360000  0.66830000  0.53565000  1
  O  O752  1  0.15430000  0.19970000  0.12483000  1
  O  O753  1  0.15430000  0.19970000  0.87517000  1
  O  O754  1  0.16830000  0.65360000  0.03565000  1
  O  O755  1  0.16830000  0.65360000  0.96435000  1
  O  O756  1  0.18030000  0.96440000  0.17854000  1
  O  O757  1  0.18030000  0.96440000  0.82146000  1
  O  O758  1  0.18248000  0.24890000  0.16689000  1
  O  O759  1  0.18248000  0.24890000  0.83311000  1
  O  O760  1  0.18710000  0.85410000  0.21593000  1
  O  O761  1  0.18710000  0.85410000  0.78407000  1
  O  O762  1  0.19970000  0.84570000  0.12483000  1
  O  O763  1  0.19970000  0.84570000  0.87517000  1
  O  O764  1  0.20280000  0.40970000  0.33333333  1
  O  O765  1  0.20280000  0.40970000  0.66666667  1
  O  O766  1  0.20460000  0.54810000  0.46383000  1
  O  O767  1  0.20460000  0.54810000  0.53617000  1
  O  O768  1  0.23290000  0.64200000  0.46446000  1
  O  O769  1  0.23290000  0.64200000  0.53554000  1
  O  O770  1  0.23620000  0.93920000  0.21865000  1
  O  O771  1  0.23620000  0.93920000  0.78135000  1
  O  O772  1  0.24220000  0.93760000  0.12828000  1
  O  O773  1  0.24220000  0.93760000  0.87172000  1
  O  O774  1  0.24890000  0.81752000  0.16689000  1
  O  O775  1  0.24890000  0.81752000  0.83311000  1
  O  O776  1  0.25110000  0.31752000  0.33311000  1
  O  O777  1  0.25110000  0.31752000  0.66689000  1
  O  O778  1  0.25780000  0.43760000  0.37172000  1
  O  O779  1  0.25780000  0.43760000  0.62828000  1
  O  O780  1  0.26380000  0.43920000  0.28135000  1
  O  O781  1  0.26380000  0.43920000  0.71865000  1
  O  O782  1  0.26710000  0.14200000  0.03554000  1
  O  O783  1  0.26710000  0.14200000  0.96446000  1
  O  O784  1  0.29540000  0.04810000  0.03617000  1
  O  O785  1  0.29540000  0.04810000  0.96383000  1
  O  O786  1  0.29720000  0.90970000  0.16668000  1
  O  O787  1  0.29720000  0.90970000  0.83332000  1
  O  O788  1  0.30030000  0.34570000  0.37517000  1
  O  O789  1  0.30030000  0.34570000  0.62483000  1
  O  O790  1  0.31290000  0.35410000  0.28407000  1
  O  O791  1  0.31290000  0.35410000  0.71593000  1
  O  O792  1  0.31752000  0.74890000  0.33311000  1
  O  O793  1  0.31752000  0.74890000  0.66689000  1
  O  O794  1  0.31970000  0.46440000  0.32146000  1
  O  O795  1  0.31970000  0.46440000  0.67854000  1
  O  O796  1  0.33170000  0.15360000  0.46435000  1
  O  O797  1  0.33170000  0.15360000  0.53565000  1
  O  O798  1  0.34570000  0.69970000  0.37517000  1
  O  O799  1  0.34570000  0.69970000  0.62483000  1
  O  O800  1  0.34640000  0.16830000  0.03565000  1
  O  O801  1  0.34640000  0.16830000  0.96435000  1
  O  O802  1  0.35410000  0.68710000  0.28407000  1
  O  O803  1  0.35410000  0.68710000  0.71593000  1
  O  O804  1  0.35800000  0.23290000  0.46446000  1
  O  O805  1  0.35800000  0.23290000  0.53554000  1
  O  O806  1  0.36480000  0.37540000  0.32577000  1
  O  O807  1  0.36480000  0.37540000  0.67423000  1
  O  O808  1  0.37540000  0.63520000  0.32577000  1
  O  O809  1  0.37540000  0.63520000  0.67423000  1
  O  O810  1  0.37680000  0.07390000  0.03561000  1
  O  O811  1  0.37680000  0.07390000  0.96439000  1
  O  O812  1  0.40970000  0.79720000  0.33333333  1
  O  O813  1  0.40970000  0.79720000  0.66666667  1
  O  O814  1  0.42610000  0.12320000  0.46439000  1
  O  O815  1  0.42610000  0.12320000  0.53561000  1
  O  O816  1  0.43760000  0.74220000  0.37172000  1
  O  O817  1  0.43760000  0.74220000  0.62828000  1
  O  O818  1  0.43920000  0.73620000  0.28135000  1
  O  O819  1  0.43920000  0.73620000  0.71865000  1
  O  O820  1  0.45190000  0.20460000  0.46383000  1
  O  O821  1  0.45190000  0.20460000  0.53617000  1
  O  O822  1  0.46440000  0.68030000  0.32146000  1
  O  O823  1  0.46440000  0.68030000  0.67854000  1
  O  O824  1  0.53560000  0.31970000  0.32146000  1
  O  O825  1  0.53560000  0.31970000  0.67854000  1
  O  O826  1  0.54810000  0.79540000  0.46383000  1
  O  O827  1  0.54810000  0.79540000  0.53617000  1
  O  O828  1  0.56080000  0.26380000  0.28135000  1
  O  O829  1  0.56080000  0.26380000  0.71865000  1
  O  O830  1  0.56240000  0.25780000  0.37172000  1
  O  O831  1  0.56240000  0.25780000  0.62828000  1
  O  O832  1  0.57390000  0.87680000  0.46439000  1
  O  O833  1  0.57390000  0.87680000  0.53561000  1
  O  O834  1  0.59030000  0.20280000  0.33333333  1
  O  O835  1  0.59030000  0.20280000  0.66666667  1
  O  O836  1  0.62320000  0.92610000  0.03561000  1
  O  O837  1  0.62320000  0.92610000  0.96439000  1
  O  O838  1  0.62460000  0.36480000  0.32577000  1
  O  O839  1  0.62460000  0.36480000  0.67423000  1
  O  O840  1  0.63520000  0.62460000  0.32577000  1
  O  O841  1  0.63520000  0.62460000  0.67423000  1
  O  O842  1  0.64200000  0.76710000  0.46446000  1
  O  O843  1  0.64200000  0.76710000  0.53554000  1
  O  O844  1  0.64590000  0.31290000  0.28407000  1
  O  O845  1  0.64590000  0.31290000  0.71593000  1
  O  O846  1  0.65360000  0.83170000  0.03565000  1
  O  O847  1  0.65360000  0.83170000  0.96435000  1
  O  O848  1  0.65430000  0.30030000  0.37517000  1
  O  O849  1  0.65430000  0.30030000  0.62483000  1
  O  O850  1  0.66830000  0.84640000  0.46435000  1
  O  O851  1  0.66830000  0.84640000  0.53565000  1
  O  O852  1  0.68030000  0.53560000  0.32146000  1
  O  O853  1  0.68030000  0.53560000  0.67854000  1
  O  O854  1  0.68248000  0.25110000  0.33311000  1
  O  O855  1  0.68248000  0.25110000  0.66689000  1
  O  O856  1  0.68710000  0.64590000  0.28407000  1
  O  O857  1  0.68710000  0.64590000  0.71593000  1
  O  O858  1  0.69970000  0.65430000  0.37517000  1
  O  O859  1  0.69970000  0.65430000  0.62483000  1
  O  O860  1  0.70280000  0.09030000  0.16668000  1
  O  O861  1  0.70280000  0.09030000  0.83332000  1
  O  O862  1  0.70460000  0.95190000  0.03617000  1
  O  O863  1  0.70460000  0.95190000  0.96383000  1
  O  O864  1  0.73290000  0.85800000  0.03554000  1
  O  O865  1  0.73290000  0.85800000  0.96446000  1
  O  O866  1  0.73620000  0.56080000  0.28135000  1
  O  O867  1  0.73620000  0.56080000  0.71865000  1
  O  O868  1  0.74220000  0.56240000  0.37172000  1
  O  O869  1  0.74220000  0.56240000  0.62828000  1
  O  O870  1  0.74890000  0.68248000  0.33311000  1
  O  O871  1  0.74890000  0.68248000  0.66689000  1
  O  O872  1  0.75110000  0.18248000  0.16689000  1
  O  O873  1  0.75110000  0.18248000  0.83311000  1
  O  O874  1  0.75780000  0.06240000  0.12828000  1
  O  O875  1  0.75780000  0.06240000  0.87172000  1
  O  O876  1  0.76380000  0.06080000  0.21865000  1
  O  O877  1  0.76380000  0.06080000  0.78135000  1
  O  O878  1  0.76710000  0.35800000  0.46446000  1
  O  O879  1  0.76710000  0.35800000  0.53554000  1
  O  O880  1  0.79540000  0.45190000  0.46383000  1
  O  O881  1  0.79540000  0.45190000  0.53617000  1
  O  O882  1  0.79720000  0.59030000  0.33333333  1
  O  O883  1  0.79720000  0.59030000  0.66666667  1
  O  O884  1  0.80030000  0.15430000  0.12483000  1
  O  O885  1  0.80030000  0.15430000  0.87517000  1
  O  O886  1  0.81290000  0.14590000  0.21593000  1
  O  O887  1  0.81290000  0.14590000  0.78407000  1
  O  O888  1  0.81752000  0.75110000  0.16689000  1
  O  O889  1  0.81752000  0.75110000  0.83311000  1
  O  O890  1  0.81970000  0.03560000  0.17854000  1
  O  O891  1  0.81970000  0.03560000  0.82146000  1
  O  O892  1  0.83170000  0.34640000  0.03565000  1
  O  O893  1  0.83170000  0.34640000  0.96435000  1
  O  O894  1  0.84570000  0.80030000  0.12483000  1
  O  O895  1  0.84570000  0.80030000  0.87517000  1
  O  O896  1  0.84640000  0.33170000  0.46435000  1
  O  O897  1  0.84640000  0.33170000  0.53565000  1
  O  O898  1  0.85410000  0.81290000  0.21593000  1
  O  O899  1  0.85410000  0.81290000  0.78407000  1
  O  O900  1  0.85800000  0.26710000  0.03554000  1
  O  O901  1  0.85800000  0.26710000  0.96446000  1
  O  O902  1  0.86480000  0.12460000  0.17423000  1
  O  O903  1  0.86480000  0.12460000  0.82577000  1
  O  O904  1  0.87540000  0.86480000  0.17423000  1
  O  O905  1  0.87540000  0.86480000  0.82577000  1
  O  O906  1  0.87680000  0.42610000  0.46439000  1
  O  O907  1  0.87680000  0.42610000  0.53561000  1
  O  O908  1  0.90970000  0.70280000  0.16668000  1
  O  O909  1  0.90970000  0.70280000  0.83332000  1
  O  O910  1  0.92610000  0.37680000  0.03561000  1
  O  O911  1  0.92610000  0.37680000  0.96439000  1
  O  O912  1  0.93760000  0.75780000  0.12828000  1
  O  O913  1  0.93760000  0.75780000  0.87172000  1
  O  O914  1  0.93920000  0.76380000  0.21865000  1
  O  O915  1  0.93920000  0.76380000  0.78135000  1
  O  O916  1  0.95190000  0.29540000  0.03617000  1
  O  O917  1  0.95190000  0.29540000  0.96383000  1
  O  O918  1  0.96440000  0.81970000  0.17854000  1
  O  O919  1  0.96440000  0.81970000  0.82146000  1
