# generated using pymatgen
data_Cu4H32C29(N2O5)2
_symmetry_space_group_name_H-M   'P 1'
_cell_length_a   10.01240000
_cell_length_b   14.19080000
_cell_length_c   21.64820000
_cell_angle_alpha   90.00000000
_cell_angle_beta   102.26500000
_cell_angle_gamma   90.00000000
_symmetry_Int_Tables_number   1
_chemical_formula_structural   Cu4H32C29(N2O5)2
_chemical_formula_sum   'Cu8 H64 C58 N8 O20'
_cell_volume   3005.65717314
_cell_formula_units_Z   2
loop_
 _symmetry_equiv_pos_site_id
 _symmetry_equiv_pos_as_xyz
  1  'x, y, z'
loop_
 _atom_site_type_symbol
 _atom_site_label
 _atom_site_symmetry_multiplicity
 _atom_site_fract_x
 _atom_site_fract_y
 _atom_site_fract_z
 _atom_site_occupancy
  Cu  Cu0  1  0.06252000  0.33362000  0.44015000  1
  Cu  Cu1  1  0.06252000  0.66638000  0.94015000  1
  Cu  Cu2  1  0.12532000  0.49449000  0.55193000  1
  Cu  Cu3  1  0.12532000  0.50551000  0.05193000  1
  Cu  Cu4  1  0.87468000  0.49449000  0.94807000  1
  Cu  Cu5  1  0.87468000  0.50551000  0.44807000  1
  Cu  Cu6  1  0.93748000  0.33362000  0.05985000  1
  Cu  Cu7  1  0.93748000  0.66638000  0.55985000  1
  H  H8  1  0.06340000  0.37400000  0.97500000  1
  H  H9  1  0.06340000  0.62600000  0.47500000  1
  H  H10  1  0.06890000  0.30830000  0.30600000  1
  H  H11  1  0.06890000  0.69170000  0.80600000  1
  H  H12  1  0.09160000  0.35740000  0.65420000  1
  H  H13  1  0.09160000  0.64260000  0.15420000  1
  H  H14  1  0.17470000  0.21790000  0.24290000  1
  H  H15  1  0.17470000  0.78210000  0.74290000  1
  H  H16  1  0.19310000  0.22260000  0.69930000  1
  H  H17  1  0.19310000  0.77740000  0.19930000  1
  H  H18  1  0.29330000  0.19850000  0.45780000  1
  H  H19  1  0.29330000  0.80150000  0.95780000  1
  H  H20  1  0.30010000  0.05080000  0.70160000  1
  H  H21  1  0.30010000  0.94920000  0.20160000  1
  H  H22  1  0.35080000  0.12690000  0.75440000  1
  H  H23  1  0.35080000  0.87310000  0.25440000  1
  H  H24  1  0.35570000  0.24110000  0.17710000  1
  H  H25  1  0.35570000  0.75890000  0.67710000  1
  H  H26  1  0.37630000  0.39520000  0.56020000  1
  H  H27  1  0.37630000  0.60480000  0.06020000  1
  H  H28  1  0.41020000  0.10890000  0.39970000  1
  H  H29  1  0.41020000  0.89110000  0.89970000  1
  H  H30  1  0.42660000  0.33990000  0.18870000  1
  H  H31  1  0.42660000  0.66010000  0.68870000  1
  H  H32  1  0.43400000  0.00630000  0.83330000  1
  H  H33  1  0.43400000  0.99370000  0.33333333  1
  H  H34  1  0.43410000  0.28230000  0.12780000  1
  H  H35  1  0.43410000  0.71770000  0.62780000  1
  H  H36  1  0.45520000  0.06810000  0.17580000  1
  H  H37  1  0.45520000  0.93190000  0.67580000  1
  H  H38  1  0.48670000  0.26140000  0.60120000  1
  H  H39  1  0.48670000  0.73860000  0.10120000  1
  H  H40  1  0.51330000  0.26140000  0.89880000  1
  H  H41  1  0.51330000  0.73860000  0.39880000  1
  H  H42  1  0.54480000  0.06810000  0.32420000  1
  H  H43  1  0.54480000  0.93190000  0.82420000  1
  H  H44  1  0.56590000  0.28230000  0.37220000  1
  H  H45  1  0.56590000  0.71770000  0.87220000  1
  H  H46  1  0.56600000  0.00630000  0.66666667  1
  H  H47  1  0.56600000  0.99370000  0.16670000  1
  H  H48  1  0.57340000  0.33990000  0.31130000  1
  H  H49  1  0.57340000  0.66010000  0.81130000  1
  H  H50  1  0.58980000  0.10890000  0.10030000  1
  H  H51  1  0.58980000  0.89110000  0.60030000  1
  H  H52  1  0.62370000  0.39520000  0.93980000  1
  H  H53  1  0.62370000  0.60480000  0.43980000  1
  H  H54  1  0.64430000  0.24110000  0.32290000  1
  H  H55  1  0.64430000  0.75890000  0.82290000  1
  H  H56  1  0.64920000  0.12690000  0.74560000  1
  H  H57  1  0.64920000  0.87310000  0.24560000  1
  H  H58  1  0.69990000  0.05080000  0.79840000  1
  H  H59  1  0.69990000  0.94920000  0.29840000  1
  H  H60  1  0.70670000  0.19850000  0.04220000  1
  H  H61  1  0.70670000  0.80150000  0.54220000  1
  H  H62  1  0.80690000  0.22260000  0.80070000  1
  H  H63  1  0.80690000  0.77740000  0.30070000  1
  H  H64  1  0.82530000  0.21790000  0.25710000  1
  H  H65  1  0.82530000  0.78210000  0.75710000  1
  H  H66  1  0.90840000  0.35740000  0.84580000  1
  H  H67  1  0.90840000  0.64260000  0.34580000  1
  H  H68  1  0.93110000  0.30830000  0.19400000  1
  H  H69  1  0.93110000  0.69170000  0.69400000  1
  H  H70  1  0.93660000  0.37400000  0.52500000  1
  H  H71  1  0.93660000  0.62600000  0.02500000  1
  C  C72  1  0.13700000  0.26660000  0.32492000  1
  C  C73  1  0.13700000  0.73340000  0.82492000  1
  C  C74  1  0.17140000  0.33680000  0.64290000  1
  C  C75  1  0.17140000  0.66320000  0.14290000  1
  C  C76  1  0.20010000  0.21290000  0.28671000  1
  C  C77  1  0.20010000  0.78710000  0.78671000  1
  C  C78  1  0.23160000  0.25610000  0.67052000  1
  C  C79  1  0.23160000  0.74390000  0.17052000  1
  C  C80  1  0.24890000  0.34400000  0.12265000  1
  C  C81  1  0.24890000  0.65600000  0.62265000  1
  C  C82  1  0.26960000  0.20250000  0.41391000  1
  C  C83  1  0.26960000  0.79750000  0.91391000  1
  C  C84  1  0.30270000  0.15100000  0.31473000  1
  C  C85  1  0.30270000  0.84900000  0.81473000  1
  C  C86  1  0.33820000  0.35890000  0.58770000  1
  C  C87  1  0.33820000  0.64110000  0.08770000  1
  C  C88  1  0.33930000  0.14770000  0.37956000  1
  C  C89  1  0.33930000  0.85230000  0.87956000  1
  C  C90  1  0.35010000  0.22570000  0.65463000  1
  C  C91  1  0.35010000  0.77430000  0.15463000  1
  C  C92  1  0.37750000  0.08910000  0.72170000  1
  C  C93  1  0.37750000  0.91090000  0.22170000  1
  C  C94  1  0.37790000  0.29760000  0.15720000  1
  C  C95  1  0.37790000  0.70240000  0.65720000  1
  C  C96  1  0.40560000  0.27930000  0.61240000  1
  C  C97  1  0.40560000  0.72070000  0.11240000  1
  C  C98  1  0.46480000  0.03350000  0.30271000  1
  C  C99  1  0.46480000  0.96650000  0.80271000  1
  C  C100  1  0.50000000  0.02650000  0.75000000  1
  C  C101  1  0.50000000  0.97350000  0.25000000  1
  C  C102  1  0.53520000  0.03350000  0.19729000  1
  C  C103  1  0.53520000  0.96650000  0.69729000  1
  C  C104  1  0.59440000  0.27930000  0.88760000  1
  C  C105  1  0.59440000  0.72070000  0.38760000  1
  C  C106  1  0.62210000  0.29760000  0.34280000  1
  C  C107  1  0.62210000  0.70240000  0.84280000  1
  C  C108  1  0.62250000  0.08910000  0.77830000  1
  C  C109  1  0.62250000  0.91090000  0.27830000  1
  C  C110  1  0.64990000  0.22570000  0.84537000  1
  C  C111  1  0.64990000  0.77430000  0.34537000  1
  C  C112  1  0.66070000  0.14770000  0.12044000  1
  C  C113  1  0.66070000  0.85230000  0.62044000  1
  C  C114  1  0.66180000  0.35890000  0.91230000  1
  C  C115  1  0.66180000  0.64110000  0.41230000  1
  C  C116  1  0.69730000  0.15100000  0.18527000  1
  C  C117  1  0.69730000  0.84900000  0.68527000  1
  C  C118  1  0.73040000  0.20250000  0.08609000  1
  C  C119  1  0.73040000  0.79750000  0.58609000  1
  C  C120  1  0.75110000  0.34400000  0.37735000  1
  C  C121  1  0.75110000  0.65600000  0.87735000  1
  C  C122  1  0.76840000  0.25610000  0.82948000  1
  C  C123  1  0.76840000  0.74390000  0.32948000  1
  C  C124  1  0.79990000  0.21290000  0.21329000  1
  C  C125  1  0.79990000  0.78710000  0.71329000  1
  C  C126  1  0.82860000  0.33680000  0.85710000  1
  C  C127  1  0.82860000  0.66320000  0.35710000  1
  C  C128  1  0.86300000  0.26660000  0.17508000  1
  C  C129  1  0.86300000  0.73340000  0.67508000  1
  N  N130  1  0.16880000  0.26180000  0.38793000  1
  N  N131  1  0.16880000  0.73820000  0.88793000  1
  N  N132  1  0.22040000  0.38720000  0.60113000  1
  N  N133  1  0.22040000  0.61280000  0.10113000  1
  N  N134  1  0.77960000  0.38720000  0.89887000  1
  N  N135  1  0.77960000  0.61280000  0.39887000  1
  N  N136  1  0.83120000  0.26180000  0.11207000  1
  N  N137  1  0.83120000  0.73820000  0.61207000  1
  O  O138  1  0.01230000  0.41120000  0.00035000  1
  O  O139  1  0.01230000  0.58880000  0.50035000  1
  O  O140  1  0.13830000  0.30710000  0.12414000  1
  O  O141  1  0.13830000  0.69290000  0.62414000  1
  O  O142  1  0.26500000  0.42033000  0.09353000  1
  O  O143  1  0.26500000  0.57967000  0.59353000  1
  O  O144  1  0.35840000  0.09781000  0.27467000  1
  O  O145  1  0.35840000  0.90219000  0.77467000  1
  O  O146  1  0.42130000  0.14794000  0.67632000  1
  O  O147  1  0.42130000  0.85206000  0.17632000  1
  O  O148  1  0.57870000  0.14794000  0.82368000  1
  O  O149  1  0.57870000  0.85206000  0.32368000  1
  O  O150  1  0.64160000  0.09781000  0.22533000  1
  O  O151  1  0.64160000  0.90219000  0.72533000  1
  O  O152  1  0.73500000  0.42033000  0.40647000  1
  O  O153  1  0.73500000  0.57967000  0.90647000  1
  O  O154  1  0.86170000  0.30710000  0.37586000  1
  O  O155  1  0.86170000  0.69290000  0.87586000  1
  O  O156  1  0.98770000  0.41120000  0.49965000  1
  O  O157  1  0.98770000  0.58880000  0.99965000  1
