# generated using pymatgen
data_Co2H6(C2N3)3
_symmetry_space_group_name_H-M   'P 1'
_cell_length_a   7.59870000
_cell_length_b   10.01660000
_cell_length_c   17.45780000
_cell_angle_alpha   90.00000000
_cell_angle_beta   90.00000000
_cell_angle_gamma   90.00000000
_symmetry_Int_Tables_number   1
_chemical_formula_structural   Co2H6(C2N3)3
_chemical_formula_sum   'Co8 H24 C24 N36'
_cell_volume   1328.76794791
_cell_formula_units_Z   4
loop_
 _symmetry_equiv_pos_site_id
 _symmetry_equiv_pos_as_xyz
  1  'x, y, z'
loop_
 _atom_site_type_symbol
 _atom_site_label
 _atom_site_symmetry_multiplicity
 _atom_site_fract_x
 _atom_site_fract_y
 _atom_site_fract_z
 _atom_site_occupancy
  Co  Co0  1  0.01066000  0.75000000  0.75845000  1
  Co  Co1  1  0.15613000  0.25000000  0.58217000  1
  Co  Co2  1  0.34387000  0.75000000  0.08217000  1
  Co  Co3  1  0.48934000  0.25000000  0.25845000  1
  Co  Co4  1  0.51066000  0.75000000  0.74155000  1
  Co  Co5  1  0.65613000  0.25000000  0.91783000  1
  Co  Co6  1  0.84387000  0.75000000  0.41783000  1
  Co  Co7  1  0.98934000  0.25000000  0.24155000  1
  H  H8  1  0.00631000  0.25000000  0.02775000  1
  H  H9  1  0.00925000  0.55579000  0.12085000  1
  H  H10  1  0.00925000  0.94421000  0.12085000  1
  H  H11  1  0.05647000  0.55759000  0.32277000  1
  H  H12  1  0.05647000  0.94241000  0.32277000  1
  H  H13  1  0.06457000  0.75000000  0.56024000  1
  H  H14  1  0.43543000  0.25000000  0.06024000  1
  H  H15  1  0.44353000  0.05759000  0.82277000  1
  H  H16  1  0.44353000  0.44241000  0.82277000  1
  H  H17  1  0.49075000  0.05579000  0.62085000  1
  H  H18  1  0.49075000  0.44421000  0.62085000  1
  H  H19  1  0.49369000  0.75000000  0.52775000  1
  H  H20  1  0.50631000  0.25000000  0.47225000  1
  H  H21  1  0.50925000  0.55579000  0.37915000  1
  H  H22  1  0.50925000  0.94421000  0.37915000  1
  H  H23  1  0.55647000  0.55759000  0.17723000  1
  H  H24  1  0.55647000  0.94241000  0.17723000  1
  H  H25  1  0.56457000  0.75000000  0.93976000  1
  H  H26  1  0.93543000  0.25000000  0.43976000  1
  H  H27  1  0.94353000  0.05759000  0.67723000  1
  H  H28  1  0.94353000  0.44241000  0.67723000  1
  H  H29  1  0.99075000  0.05579000  0.87915000  1
  H  H30  1  0.99075000  0.44421000  0.87915000  1
  H  H31  1  0.99369000  0.75000000  0.97225000  1
  C  C32  1  0.07276000  0.25000000  0.41732000  1
  C  C33  1  0.08357000  0.01921000  0.67616000  1
  C  C34  1  0.08357000  0.48079000  0.67616000  1
  C  C35  1  0.11427000  0.75000000  0.93735000  1
  C  C36  1  0.13396000  0.51626000  0.14825000  1
  C  C37  1  0.13396000  0.98374000  0.14825000  1
  C  C38  1  0.36604000  0.01626000  0.64825000  1
  C  C39  1  0.36604000  0.48374000  0.64825000  1
  C  C40  1  0.38573000  0.25000000  0.43735000  1
  C  C41  1  0.41643000  0.51921000  0.17616000  1
  C  C42  1  0.41643000  0.98079000  0.17616000  1
  C  C43  1  0.42724000  0.75000000  0.91732000  1
  C  C44  1  0.57276000  0.25000000  0.08268000  1
  C  C45  1  0.58357000  0.01921000  0.82384000  1
  C  C46  1  0.58357000  0.48079000  0.82384000  1
  C  C47  1  0.61427000  0.75000000  0.56265000  1
  C  C48  1  0.63396000  0.51626000  0.35175000  1
  C  C49  1  0.63396000  0.98374000  0.35175000  1
  C  C50  1  0.86604000  0.01626000  0.85175000  1
  C  C51  1  0.86604000  0.48374000  0.85175000  1
  C  C52  1  0.88573000  0.25000000  0.06265000  1
  C  C53  1  0.91643000  0.51921000  0.32384000  1
  C  C54  1  0.91643000  0.98079000  0.32384000  1
  C  C55  1  0.92724000  0.75000000  0.58268000  1
  N  N56  1  0.15143000  0.59496000  0.70966000  1
  N  N57  1  0.15143000  0.90504000  0.70966000  1
  N  N58  1  0.15762000  0.75000000  0.85874000  1
  N  N59  1  0.16824000  0.25000000  0.34993000  1
  N  N60  1  0.17244000  0.09813000  0.19395000  1
  N  N61  1  0.17244000  0.40187000  0.19395000  1
  N  N62  1  0.20604000  0.08753000  0.63896000  1
  N  N63  1  0.20604000  0.41247000  0.63896000  1
  N  N64  1  0.21997000  0.25000000  0.47267000  1
  N  N65  1  0.28003000  0.75000000  0.97267000  1
  N  N66  1  0.29396000  0.58753000  0.13896000  1
  N  N67  1  0.29396000  0.91247000  0.13896000  1
  N  N68  1  0.32756000  0.59813000  0.69395000  1
  N  N69  1  0.32756000  0.90187000  0.69395000  1
  N  N70  1  0.33176000  0.75000000  0.84993000  1
  N  N71  1  0.34238000  0.25000000  0.35874000  1
  N  N72  1  0.34857000  0.09496000  0.20966000  1
  N  N73  1  0.34857000  0.40504000  0.20966000  1
  N  N74  1  0.65143000  0.59496000  0.79034000  1
  N  N75  1  0.65143000  0.90504000  0.79034000  1
  N  N76  1  0.65762000  0.75000000  0.64126000  1
  N  N77  1  0.66824000  0.25000000  0.15007000  1
  N  N78  1  0.67244000  0.09813000  0.30605000  1
  N  N79  1  0.67244000  0.40187000  0.30605000  1
  N  N80  1  0.70604000  0.08753000  0.86104000  1
  N  N81  1  0.70604000  0.41247000  0.86104000  1
  N  N82  1  0.71997000  0.25000000  0.02733000  1
  N  N83  1  0.78003000  0.75000000  0.52733000  1
  N  N84  1  0.79396000  0.58753000  0.36104000  1
  N  N85  1  0.79396000  0.91247000  0.36104000  1
  N  N86  1  0.82756000  0.59813000  0.80605000  1
  N  N87  1  0.82756000  0.90187000  0.80605000  1
  N  N88  1  0.83176000  0.75000000  0.65007000  1
  N  N89  1  0.84238000  0.25000000  0.14126000  1
  N  N90  1  0.84857000  0.09496000  0.29034000  1
  N  N91  1  0.84857000  0.40504000  0.29034000  1
