# generated using pymatgen
data_TmH6(C2O)6
_symmetry_space_group_name_H-M   'P 1'
_cell_length_a   8.65140000
_cell_length_b   10.15310000
_cell_length_c   11.17030000
_cell_angle_alpha   65.43700000
_cell_angle_beta   71.66600000
_cell_angle_gamma   78.42100000
_symmetry_Int_Tables_number   1
_chemical_formula_structural   TmH6(C2O)6
_chemical_formula_sum   'Tm2 H12 C24 O12'
_cell_volume   844.30587098
_cell_formula_units_Z   2
loop_
 _symmetry_equiv_pos_site_id
 _symmetry_equiv_pos_as_xyz
  1  'x, y, z'
loop_
 _atom_site_type_symbol
 _atom_site_label
 _atom_site_symmetry_multiplicity
 _atom_site_fract_x
 _atom_site_fract_y
 _atom_site_fract_z
 _atom_site_occupancy
  Tm  Tm0  1  0.13211000  0.44027000  0.65278000  1
  Tm  Tm1  1  0.86789000  0.55973000  0.34722000  1
  H  H2  1  0.02070000  0.02710000  0.27950000  1
  H  H3  1  0.07410000  0.21790000  0.31990000  1
  H  H4  1  0.23030000  0.07020000  0.08110000  1
  H  H5  1  0.28680000  0.38170000  0.01530000  1
  H  H6  1  0.36640000  0.88820000  0.22690000  1
  H  H7  1  0.45610000  0.64550000  0.12310000  1
  H  H8  1  0.54390000  0.35450000  0.87690000  1
  H  H9  1  0.63360000  0.11180000  0.77310000  1
  H  H10  1  0.71320000  0.61830000  0.98470000  1
  H  H11  1  0.76970000  0.92980000  0.91890000  1
  H  H12  1  0.92590000  0.78210000  0.68010000  1
  H  H13  1  0.97930000  0.97290000  0.72050000  1
  C  C14  1  0.01200000  0.01650000  0.36810000  1
  C  C15  1  0.03390000  0.11400000  0.52360000  1
  C  C16  1  0.04490000  0.13080000  0.39200000  1
  C  C17  1  0.07010000  0.23390000  0.55240000  1
  C  C18  1  0.17980000  0.53850000  0.16910000  1
  C  C19  1  0.32580000  0.23140000  0.82090000  1
  C  C20  1  0.33930000  0.04220000  0.04810000  1
  C  C21  1  0.34580000  0.51710000  0.08260000  1
  C  C22  1  0.37210000  0.42920000  0.00910000  1
  C  C23  1  0.41810000  0.11180000  0.91100000  1
  C  C24  1  0.42070000  0.93260000  0.13560000  1
  C  C25  1  0.47390000  0.58710000  0.07340000  1
  C  C26  1  0.52610000  0.41290000  0.92660000  1
  C  C27  1  0.57930000  0.06740000  0.86440000  1
  C  C28  1  0.58190000  0.88820000  0.08900000  1
  C  C29  1  0.62790000  0.57080000  0.99090000  1
  C  C30  1  0.65420000  0.48290000  0.91740000  1
  C  C31  1  0.66070000  0.95780000  0.95190000  1
  C  C32  1  0.67420000  0.76860000  0.17910000  1
  C  C33  1  0.82020000  0.46150000  0.83090000  1
  C  C34  1  0.92990000  0.76610000  0.44760000  1
  C  C35  1  0.95510000  0.86920000  0.60800000  1
  C  C36  1  0.96610000  0.88600000  0.47640000  1
  C  C37  1  0.98800000  0.98350000  0.63190000  1
  O  O38  1  0.03770000  0.36570000  0.48110000  1
  O  O39  1  0.06450000  0.47640000  0.17490000  1
  O  O40  1  0.13200000  0.20060000  0.65000000  1
  O  O41  1  0.15670000  0.61870000  0.23630000  1
  O  O42  1  0.17870000  0.26560000  0.86850000  1
  O  O43  1  0.39780000  0.29890000  0.69610000  1
  O  O44  1  0.60220000  0.70110000  0.30390000  1
  O  O45  1  0.82130000  0.73440000  0.13150000  1
  O  O46  1  0.84330000  0.38130000  0.76370000  1
  O  O47  1  0.86800000  0.79940000  0.35000000  1
  O  O48  1  0.93550000  0.52360000  0.82510000  1
  O  O49  1  0.96230000  0.63430000  0.51890000  1
