# generated using pymatgen
data_MgH3(CO2)3
_symmetry_space_group_name_H-M   'P 1'
_cell_length_a   7.68830000
_cell_length_b   7.78750000
_cell_length_c   12.85580000
_cell_angle_alpha   90.00000000
_cell_angle_beta   90.00000000
_cell_angle_gamma   90.00000000
_symmetry_Int_Tables_number   1
_chemical_formula_structural   MgH3(CO2)3
_chemical_formula_sum   'Mg4 H12 C12 O24'
_cell_volume   769.71063710
_cell_formula_units_Z   4
loop_
 _symmetry_equiv_pos_site_id
 _symmetry_equiv_pos_as_xyz
  1  'x, y, z'
loop_
 _atom_site_type_symbol
 _atom_site_label
 _atom_site_symmetry_multiplicity
 _atom_site_fract_x
 _atom_site_fract_y
 _atom_site_fract_z
 _atom_site_occupancy
  Mg  Mg0  1  0.05363000  0.00563000  0.91555000  1
  Mg  Mg1  1  0.44637000  0.99437000  0.41555000  1
  Mg  Mg2  1  0.55363000  0.49437000  0.08445000  1
  Mg  Mg3  1  0.94637000  0.50563000  0.58445000  1
  H  H4  1  0.03340000  0.32940000  0.77810000  1
  H  H5  1  0.12400000  0.20110000  0.47160000  1
  H  H6  1  0.23520000  0.29810000  0.01790000  1
  H  H7  1  0.26480000  0.70190000  0.51790000  1
  H  H8  1  0.37600000  0.79890000  0.97160000  1
  H  H9  1  0.46660000  0.67060000  0.27810000  1
  H  H10  1  0.53340000  0.17060000  0.22190000  1
  H  H11  1  0.62400000  0.29890000  0.52840000  1
  H  H12  1  0.73520000  0.20190000  0.98210000  1
  H  H13  1  0.76480000  0.79810000  0.48210000  1
  H  H14  1  0.87600000  0.70110000  0.02840000  1
  H  H15  1  0.96660000  0.82940000  0.72190000  1
  C  C16  1  0.07250000  0.77660000  0.73615000  1
  C  C17  1  0.18990000  0.72400000  0.46274000  1
  C  C18  1  0.19720000  0.22120000  0.52788000  1
  C  C19  1  0.30280000  0.77880000  0.02788000  1
  C  C20  1  0.31010000  0.27600000  0.96274000  1
  C  C21  1  0.42750000  0.22340000  0.23615000  1
  C  C22  1  0.57250000  0.72340000  0.26385000  1
  C  C23  1  0.68990000  0.77600000  0.53726000  1
  C  C24  1  0.69720000  0.27880000  0.47212000  1
  C  C25  1  0.80280000  0.72120000  0.97212000  1
  C  C26  1  0.81010000  0.22400000  0.03726000  1
  C  C27  1  0.92750000  0.27660000  0.76385000  1
  O  O28  1  0.04837000  0.64961000  0.46352000  1
  O  O29  1  0.10398000  0.63772000  0.69084000  1
  O  O30  1  0.15306000  0.33591000  0.58794000  1
  O  O31  1  0.17129000  0.87066000  0.03392000  1
  O  O32  1  0.17169000  0.85005000  0.79880000  1
  O  O33  1  0.24214000  0.82674000  0.39438000  1
  O  O34  1  0.25786000  0.17326000  0.89438000  1
  O  O35  1  0.32831000  0.14995000  0.29880000  1
  O  O36  1  0.32871000  0.12934000  0.53392000  1
  O  O37  1  0.34694000  0.66409000  0.08794000  1
  O  O38  1  0.39602000  0.36228000  0.19084000  1
  O  O39  1  0.45163000  0.35039000  0.96352000  1
  O  O40  1  0.54837000  0.85039000  0.53648000  1
  O  O41  1  0.60398000  0.86228000  0.30916000  1
  O  O42  1  0.65306000  0.16409000  0.41206000  1
  O  O43  1  0.67129000  0.62934000  0.96608000  1
  O  O44  1  0.67169000  0.64995000  0.20120000  1
  O  O45  1  0.74214000  0.67326000  0.60562000  1
  O  O46  1  0.75786000  0.32674000  0.10562000  1
  O  O47  1  0.82831000  0.35005000  0.70120000  1
  O  O48  1  0.82871000  0.37066000  0.46608000  1
  O  O49  1  0.84694000  0.83591000  0.91206000  1
  O  O50  1  0.89602000  0.13772000  0.80916000  1
  O  O51  1  0.95163000  0.14961000  0.03648000  1
