# generated using pymatgen
data_Mn3H16C30(NO7)2
_symmetry_space_group_name_H-M   'P 1'
_cell_length_a   12.55280000
_cell_length_b   12.66300000
_cell_length_c   18.18900000
_cell_angle_alpha   90.00000000
_cell_angle_beta   90.00000000
_cell_angle_gamma   113.38800000
_symmetry_Int_Tables_number   1
_chemical_formula_structural   Mn3H16C30(NO7)2
_chemical_formula_sum   'Mn6 H32 C60 N4 O28'
_cell_volume   2653.70089713
_cell_formula_units_Z   2
loop_
 _symmetry_equiv_pos_site_id
 _symmetry_equiv_pos_as_xyz
  1  'x, y, z'
loop_
 _atom_site_type_symbol
 _atom_site_label
 _atom_site_symmetry_multiplicity
 _atom_site_fract_x
 _atom_site_fract_y
 _atom_site_fract_z
 _atom_site_occupancy
  Mn  Mn0  1  0.00000000  0.50000000  0.50000000  1
  Mn  Mn1  1  0.17734000  0.07290000  0.29091000  1
  Mn  Mn2  1  0.32266000  0.92710000  0.79091000  1
  Mn  Mn3  1  0.50000000  0.50000000  0.00000000  1
  Mn  Mn4  1  0.67734000  0.07290000  0.20909000  1
  Mn  Mn5  1  0.82266000  0.92710000  0.70909000  1
  H  H6  1  0.01590000  0.57890000  0.71770000  1
  H  H7  1  0.02510000  0.69160000  0.20300000  1
  H  H8  1  0.05010000  0.40100000  0.73670000  1
  H  H9  1  0.09570000  0.72300000  0.39610000  1
  H  H10  1  0.12550000  0.25880000  0.77660000  1
  H  H11  1  0.16680000  0.65360000  0.12780000  1
  H  H12  1  0.22580000  0.48980000  0.42740000  1
  H  H13  1  0.24090000  0.60860000  0.68250000  1
  H  H14  1  0.25910000  0.39140000  0.18250000  1
  H  H15  1  0.27420000  0.51020000  0.92740000  1
  H  H16  1  0.33320000  0.34640000  0.62780000  1
  H  H17  1  0.37450000  0.74120000  0.27660000  1
  H  H18  1  0.40430000  0.27700000  0.89610000  1
  H  H19  1  0.44990000  0.59900000  0.23670000  1
  H  H20  1  0.47490000  0.30840000  0.70300000  1
  H  H21  1  0.48410000  0.42110000  0.21770000  1
  H  H22  1  0.51590000  0.57890000  0.78230000  1
  H  H23  1  0.52510000  0.69160000  0.29700000  1
  H  H24  1  0.55010000  0.40100000  0.76330000  1
  H  H25  1  0.59570000  0.72300000  0.10390000  1
  H  H26  1  0.62550000  0.25880000  0.72340000  1
  H  H27  1  0.66680000  0.65360000  0.37220000  1
  H  H28  1  0.72580000  0.48980000  0.07260000  1
  H  H29  1  0.74090000  0.60860000  0.81750000  1
  H  H30  1  0.75910000  0.39140000  0.31750000  1
  H  H31  1  0.77420000  0.51020000  0.57260000  1
  H  H32  1  0.83320000  0.34640000  0.87220000  1
  H  H33  1  0.87450000  0.74120000  0.22340000  1
  H  H34  1  0.90430000  0.27700000  0.60390000  1
  H  H35  1  0.94990000  0.59900000  0.26330000  1
  H  H36  1  0.97490000  0.30840000  0.79700000  1
  H  H37  1  0.98410000  0.42110000  0.28230000  1
  C  C38  1  0.01730000  0.39150000  0.78697000  1
  C  C39  1  0.04570000  0.44820000  0.24758000  1
  C  C40  1  0.06240000  0.54620000  0.20556000  1
  C  C41  1  0.10250000  0.28340000  0.28273000  1
  C  C42  1  0.11880000  0.39030000  0.23879000  1
  C  C43  1  0.15190000  0.69300000  0.38410000  1
  C  C44  1  0.15390000  0.58610000  0.15565000  1
  C  C45  1  0.17830000  0.43370000  0.58884000  1
  C  C46  1  0.18220000  0.29440000  0.81337000  1
  C  C47  1  0.18470000  0.39150000  0.85029000  1
  C  C48  1  0.20900000  0.43070000  0.18832000  1
  C  C49  1  0.22690000  0.52800000  0.14610000  1
  C  C50  1  0.22800000  0.55660000  0.40251000  1
  C  C51  1  0.23550000  0.74980000  0.33131000  1
  C  C52  1  0.23860000  0.85750000  0.29433000  1
  C  C53  1  0.26140000  0.14250000  0.79433000  1
  C  C54  1  0.26450000  0.25020000  0.83131000  1
  C  C55  1  0.27200000  0.44340000  0.90251000  1
  C  C56  1  0.27310000  0.47200000  0.64610000  1
  C  C57  1  0.29100000  0.56930000  0.68832000  1
  C  C58  1  0.31530000  0.60850000  0.35029000  1
  C  C59  1  0.31780000  0.70560000  0.31337000  1
  C  C60  1  0.32170000  0.56630000  0.08884000  1
  C  C61  1  0.34610000  0.41390000  0.65565000  1
  C  C62  1  0.34810000  0.30700000  0.88410000  1
  C  C63  1  0.38120000  0.60970000  0.73879000  1
  C  C64  1  0.39750000  0.71660000  0.78273000  1
  C  C65  1  0.43760000  0.45380000  0.70556000  1
  C  C66  1  0.45430000  0.55180000  0.74758000  1
  C  C67  1  0.48270000  0.60850000  0.28697000  1
  C  C68  1  0.51730000  0.39150000  0.71303000  1
  C  C69  1  0.54570000  0.44820000  0.25242000  1
  C  C70  1  0.56240000  0.54620000  0.29444000  1
  C  C71  1  0.60250000  0.28340000  0.21727000  1
  C  C72  1  0.61880000  0.39030000  0.26121000  1
  C  C73  1  0.65190000  0.69300000  0.11590000  1
  C  C74  1  0.65390000  0.58610000  0.34435000  1
  C  C75  1  0.67830000  0.43370000  0.91116000  1
  C  C76  1  0.68220000  0.29440000  0.68663000  1
  C  C77  1  0.68470000  0.39150000  0.64971000  1
  C  C78  1  0.70900000  0.43070000  0.31168000  1
  C  C79  1  0.72690000  0.52800000  0.35390000  1
  C  C80  1  0.72800000  0.55660000  0.09749000  1
  C  C81  1  0.73550000  0.74980000  0.16869000  1
  C  C82  1  0.73860000  0.85750000  0.20567000  1
  C  C83  1  0.76140000  0.14250000  0.70567000  1
  C  C84  1  0.76450000  0.25020000  0.66869000  1
  C  C85  1  0.77200000  0.44340000  0.59749000  1
  C  C86  1  0.77310000  0.47200000  0.85390000  1
  C  C87  1  0.79100000  0.56930000  0.81168000  1
  C  C88  1  0.81530000  0.60850000  0.14971000  1
  C  C89  1  0.81780000  0.70560000  0.18663000  1
  C  C90  1  0.82170000  0.56630000  0.41116000  1
  C  C91  1  0.84610000  0.41390000  0.84435000  1
  C  C92  1  0.84810000  0.30700000  0.61590000  1
  C  C93  1  0.88120000  0.60970000  0.76121000  1
  C  C94  1  0.89750000  0.71660000  0.71727000  1
  C  C95  1  0.93760000  0.45380000  0.79444000  1
  C  C96  1  0.95430000  0.55180000  0.75242000  1
  C  C97  1  0.98270000  0.60850000  0.21303000  1
  N  N98  1  0.14752000  0.59770000  0.41873000  1
  N  N99  1  0.35248000  0.40230000  0.91873000  1
  N  N100  1  0.64752000  0.59770000  0.08127000  1
  N  N101  1  0.85248000  0.40230000  0.58127000  1
  O  O102  1  0.01997000  0.24592000  0.32849000  1
  O  O103  1  0.10894000  0.44330000  0.84085000  1
  O  O104  1  0.12100000  0.49435000  0.58164000  1
  O  O105  1  0.16540000  0.34542000  0.55075000  1
  O  O106  1  0.17150000  0.90150000  0.31641000  1
  O  O107  1  0.17340000  0.23863000  0.27077000  1
  O  O108  1  0.19100000  0.10390000  0.74164000  1
  O  O109  1  0.30900000  0.89610000  0.24164000  1
  O  O110  1  0.32660000  0.76137000  0.77077000  1
  O  O111  1  0.32850000  0.09850000  0.81641000  1
  O  O112  1  0.33460000  0.65458000  0.05075000  1
  O  O113  1  0.37900000  0.50565000  0.08164000  1
  O  O114  1  0.39106000  0.55670000  0.34085000  1
  O  O115  1  0.48003000  0.75408000  0.82849000  1
  O  O116  1  0.51997000  0.24592000  0.17151000  1
  O  O117  1  0.60894000  0.44330000  0.65915000  1
  O  O118  1  0.62100000  0.49435000  0.91836000  1
  O  O119  1  0.66540000  0.34542000  0.94925000  1
  O  O120  1  0.67150000  0.90150000  0.18359000  1
  O  O121  1  0.67340000  0.23863000  0.22923000  1
  O  O122  1  0.69100000  0.10390000  0.75836000  1
  O  O123  1  0.80900000  0.89610000  0.25836000  1
  O  O124  1  0.82660000  0.76137000  0.72923000  1
  O  O125  1  0.82850000  0.09850000  0.68359000  1
  O  O126  1  0.83460000  0.65458000  0.44925000  1
  O  O127  1  0.87900000  0.50565000  0.41836000  1
  O  O128  1  0.89106000  0.55670000  0.15915000  1
  O  O129  1  0.98003000  0.75408000  0.67151000  1
