# generated using pymatgen
data_Cu4H36C120O37
_symmetry_space_group_name_H-M   'P 1'
_cell_length_a   29.33320003
_cell_length_b   29.33320003
_cell_length_c   31.16770000
_cell_angle_alpha   76.40107240
_cell_angle_beta   76.40107240
_cell_angle_gamma   89.92320676
_symmetry_Int_Tables_number   1
_chemical_formula_structural   Cu4H36C120O37
_chemical_formula_sum   'Cu16 H144 C480 O148'
_cell_volume   25293.91869789
_cell_formula_units_Z   4
loop_
 _symmetry_equiv_pos_site_id
 _symmetry_equiv_pos_as_xyz
  1  'x, y, z'
loop_
 _atom_site_type_symbol
 _atom_site_label
 _atom_site_symmetry_multiplicity
 _atom_site_fract_x
 _atom_site_fract_y
 _atom_site_fract_z
 _atom_site_occupancy
  C  C0  1  0.13575000  0.86531000  0.41170000  1
  C  C1  1  0.86531000  0.13575000  0.91170000  1
  C  C2  1  0.16161000  0.83957000  0.20090000  1
  C  C3  1  0.83957000  0.16161000  0.70090000  1
  C  C4  1  0.47840000  0.52300000  0.72580000  1
  C  C5  1  0.52300000  0.47840000  0.22580000  1
  C  C6  1  0.04960000  0.95240000  0.04770000  1
  C  C7  1  0.95240000  0.04960000  0.54770000  1
  C  C8  1  0.32690000  0.67758000  0.84660000  1
  C  C9  1  0.67758000  0.32690000  0.34660000  1
  C  C10  1  0.11140000  0.89484000  0.43689000  1
  C  C11  1  0.89484000  0.11140000  0.93689000  1
  C  C12  1  0.08131000  0.92581000  0.07660000  1
  C  C13  1  0.92581000  0.08131000  0.57660000  1
  C  C14  1  0.31865000  0.69419000  0.72426000  1
  C  C15  1  0.69419000  0.31865000  0.22426000  1
  C  C16  1  0.19426000  0.81928000  0.22441000  1
  C  C17  1  0.81928000  0.19426000  0.72441000  1
  C  C18  1  0.14037000  0.87711000  0.12700000  1
  C  C19  1  0.87711000  0.14037000  0.62700000  1
  C  C20  1  0.17321000  0.85133000  0.15362000  1
  C  C21  1  0.85133000  0.17321000  0.65362000  1
  C  C22  1  0.36567000  0.65893000  0.91160000  1
  C  C23  1  0.65893000  0.36567000  0.41160000  1
  C  C24  1  0.08699000  0.93867000  0.11530000  1
  C  C25  1  0.93867000  0.08699000  0.61530000  1
  C  C26  1  0.33853000  0.68953000  0.79930000  1
  C  C27  1  0.68953000  0.33853000  0.29930000  1
  C  C28  1  0.11652000  0.91432000  0.14048000  1
  C  C29  1  0.91432000  0.11652000  0.64048000  1
  C  C30  1  0.12380000  0.91080000  0.75280000  1
  C  C31  1  0.91080000  0.12380000  0.25280000  1
  C  C32  1  0.23853000  0.81073000  0.20063000  1
  C  C33  1  0.81073000  0.23853000  0.70063000  1
  C  C34  1  0.35995000  0.69137000  0.87302000  1
  C  C35  1  0.69137000  0.35995000  0.37302000  1
  C  C36  1  0.34256000  0.71744000  0.62969000  1
  C  C37  1  0.71744000  0.34256000  0.12969000  1
  C  C38  1  0.21748000  0.84280000  0.12984000  1
  C  C39  1  0.84280000  0.21748000  0.62984000  1
  C  C40  1  0.39530000  0.67032000  0.93679000  1
  C  C41  1  0.67032000  0.39530000  0.43679000  1
  C  C42  1  0.48380000  0.58300000  0.79140000  1
  C  C43  1  0.58300000  0.48380000  0.29140000  1
  C  C44  1  0.18720000  0.88120000  0.77970000  1
  C  C45  1  0.88120000  0.18720000  0.27970000  1
  C  C46  1  0.25014000  0.82250000  0.15334000  1
  C  C47  1  0.82250000  0.25014000  0.65334000  1
  C  C48  1  0.33879000  0.73853000  0.70050000  1
  C  C49  1  0.73853000  0.33879000  0.20050000  1
  C  C50  1  0.31385000  0.76517000  0.14038000  1
  C  C51  1  0.76517000  0.31385000  0.64038000  1
  C  C52  1  0.47110000  0.61650000  0.75180000  1
  C  C53  1  0.61650000  0.47110000  0.25180000  1
  C  C54  1  0.41770000  0.67950000  0.77960000  1
  C  C55  1  0.67950000  0.41770000  0.27960000  1
  C  C56  1  0.35074000  0.75016000  0.65320000  1
  C  C57  1  0.75016000  0.35074000  0.15320000  1
  C  C58  1  0.18930000  0.91310000  0.27470000  1
  C  C59  1  0.91310000  0.18930000  0.77470000  1
  C  C60  1  0.29646000  0.80898000  0.12700000  1
  C  C61  1  0.80898000  0.29646000  0.62700000  1
  C  C62  1  0.35620000  0.75378000  0.11530000  1
  C  C63  1  0.75378000  0.35620000  0.61530000  1
  C  C64  1  0.30010000  0.81070000  0.78030000  1
  C  C65  1  0.81070000  0.30010000  0.28030000  1
  C  C66  1  0.23880000  0.87320000  0.76640000  1
  C  C67  1  0.87320000  0.23880000  0.26640000  1
  C  C68  1  0.31530000  0.80330000  0.73520000  1
  C  C69  1  0.80330000  0.31530000  0.23520000  1
  C  C70  1  0.38388000  0.73520000  0.85974000  1
  C  C71  1  0.73520000  0.38388000  0.35974000  1
  C  C72  1  0.07340000  0.04720000  0.95180000  1
  C  C73  1  0.04720000  0.07340000  0.45180000  1
  C  C74  1  0.30280000  0.81800000  0.22460000  1
  C  C75  1  0.81800000  0.30280000  0.72460000  1
  C  C76  1  0.41923000  0.71415000  0.92351000  1
  C  C77  1  0.71415000  0.41923000  0.42351000  1
  C  C78  1  0.17670000  0.95990000  0.26700000  1
  C  C79  1  0.95990000  0.17670000  0.76700000  1
  C  C80  1  0.41351000  0.74659000  0.88500000  1
  C  C81  1  0.74659000  0.41351000  0.38500000  1
  C  C82  1  0.45960000  0.70080000  0.74910000  1
  C  C83  1  0.70080000  0.45960000  0.24910000  1
  C  C84  1  0.32143000  0.84141000  0.08850000  1
  C  C85  1  0.84141000  0.32143000  0.58850000  1
  C  C86  1  0.38118000  0.78620000  0.07680000  1
  C  C87  1  0.78620000  0.38118000  0.57680000  1
  C  C88  1  0.37780000  0.79662000  0.62640000  1
  C  C89  1  0.79662000  0.37780000  0.12640000  1
  C  C90  1  0.45060000  0.72660000  0.95090000  1
  C  C91  1  0.72660000  0.45060000  0.45090000  1
  C  C92  1  0.36490000  0.82166000  0.58770000  1
  C  C93  1  0.82166000  0.36490000  0.08770000  1
  C  C94  1  0.33010000  0.85970000  0.21870000  1
  C  C95  1  0.85970000  0.33010000  0.71870000  1
  C  C96  1  0.11921000  0.07411000  0.92357000  1
  C  C97  1  0.07411000  0.11921000  0.42357000  1
  C  C98  1  0.36380000  0.83002000  0.06341000  1
  C  C99  1  0.83002000  0.36380000  0.56341000  1
  C  C100  1  0.42570000  0.77230000  0.04870000  1
  C  C101  1  0.77230000  0.42570000  0.54870000  1
  C  C102  1  0.14393000  0.06091000  0.88500000  1
  C  C103  1  0.06091000  0.14393000  0.38500000  1
  C  C104  1  0.17810000  0.03770000  0.76450000  1
  C  C105  1  0.03770000  0.17810000  0.26450000  1
  C  C106  1  0.41477000  0.81385000  0.64006000  1
  C  C107  1  0.81385000  0.41477000  0.14006000  1
  C  C108  1  0.13671000  0.11123000  0.93683000  1
  C  C109  1  0.11123000  0.13671000  0.43683000  1
  C  C110  1  0.38896000  0.86394000  0.56275000  1
  C  C111  1  0.86394000  0.38896000  0.06275000  1
  C  C112  1  0.53940000  0.71400000  0.22650000  1
  C  C113  1  0.71400000  0.53940000  0.72650000  1
  C  C114  1  0.16710000  0.08830000  0.75190000  1
  C  C115  1  0.08830000  0.16710000  0.25190000  1
  C  C116  1  0.18615000  0.08483000  0.85960000  1
  C  C117  1  0.08483000  0.18615000  0.35960000  1
  C  C118  1  0.27510000  0.01050000  0.75970000  1
  C  C119  1  0.01050000  0.27510000  0.25970000  1
  C  C120  1  0.58930000  0.69650000  0.21610000  1
  C  C121  1  0.69650000  0.58930000  0.71610000  1
  C  C122  1  0.23400000  0.05960000  0.77280000  1
  C  C123  1  0.05960000  0.23400000  0.27280000  1
  C  C124  1  0.43882000  0.85612000  0.61510000  1
  C  C125  1  0.85612000  0.43882000  0.11510000  1
  C  C126  1  0.57320000  0.72780000  0.95190000  1
  C  C127  1  0.72780000  0.57320000  0.45190000  1
  C  C128  1  0.64420000  0.66220000  0.73800000  1
  C  C129  1  0.66220000  0.64420000  0.23800000  1
  C  C130  1  0.42592000  0.88116000  0.57640000  1
  C  C131  1  0.88116000  0.42592000  0.07640000  1
  C  C132  1  0.63665000  0.67061000  0.93714000  1
  C  C133  1  0.67061000  0.63665000  0.43714000  1
  C  C134  1  0.17893000  0.13515000  0.91150000  1
  C  C135  1  0.13515000  0.17893000  0.41150000  1
  C  C136  1  0.54980000  0.77220000  0.04870000  1
  C  C137  1  0.77220000  0.54980000  0.54870000  1
  C  C138  1  0.20365000  0.12195000  0.87285000  1
  C  C139  1  0.12195000  0.20365000  0.37285000  1
  C  C140  1  0.61924000  0.71438000  0.92360000  1
  C  C141  1  0.71438000  0.61924000  0.42360000  1
  C  C142  1  0.22520000  0.10900000  0.76070000  1
  C  C143  1  0.10900000  0.22520000  0.26070000  1
  C  C144  1  0.65912000  0.67900000  0.41210000  1
  C  C145  1  0.67900000  0.65912000  0.91210000  1
  C  C146  1  0.63980000  0.70000000  0.22470000  1
  C  C147  1  0.70000000  0.63980000  0.72470000  1
  C  C148  1  0.58664000  0.75344000  0.11520000  1
  C  C149  1  0.75344000  0.58664000  0.61520000  1
  C  C150  1  0.53720000  0.80300000  0.24350000  1
  C  C151  1  0.80300000  0.53720000  0.74350000  1
  C  C152  1  0.61550000  0.73710000  0.24100000  1
  C  C153  1  0.73710000  0.61550000  0.74100000  1
  C  C154  1  0.18730000  0.16550000  0.25060000  1
  C  C155  1  0.16550000  0.18730000  0.75060000  1
  C  C156  1  0.50570000  0.84750000  0.25810000  1
  C  C157  1  0.84750000  0.50570000  0.75810000  1
  C  C158  1  0.65710000  0.69890000  0.75920000  1
  C  C159  1  0.69890000  0.65710000  0.25920000  1
  C  C160  1  0.32390000  0.03450000  0.74280000  1
  C  C161  1  0.03450000  0.32390000  0.24280000  1
  C  C162  1  0.58116000  0.78568000  0.07649000  1
  C  C163  1  0.78568000  0.58116000  0.57649000  1
  C  C164  1  0.67690000  0.69630000  0.27200000  1
  C  C165  1  0.69630000  0.67690000  0.77200000  1
  C  C166  1  0.45240000  0.92580000  0.54830000  1
  C  C167  1  0.92580000  0.45240000  0.04830000  1
  C  C168  1  0.61620000  0.76498000  0.14048000  1
  C  C169  1  0.76498000  0.61620000  0.64048000  1
  C  C170  1  0.19600000  0.18620000  0.77920000  1
  C  C171  1  0.18620000  0.19600000  0.27920000  1
  C  C172  1  0.64419000  0.74665000  0.88490000  1
  C  C173  1  0.74665000  0.64419000  0.38490000  1
  C  C174  1  0.23640000  0.15560000  0.22940000  1
  C  C175  1  0.15560000  0.23640000  0.72940000  1
  C  C176  1  0.69139000  0.70393000  0.37350000  1
  C  C177  1  0.70393000  0.69139000  0.87350000  1
  C  C178  1  0.31570000  0.08170000  0.72750000  1
  C  C179  1  0.08170000  0.31570000  0.22750000  1
  C  C180  1  0.25028000  0.14842000  0.84664000  1
  C  C181  1  0.14842000  0.25028000  0.34664000  1
  C  C182  1  0.58340000  0.82160000  0.22620000  1
  C  C183  1  0.82160000  0.58340000  0.72620000  1
  C  C184  1  0.68654000  0.73516000  0.85991000  1
  C  C185  1  0.73516000  0.68654000  0.35991000  1
  C  C186  1  0.26236000  0.15974000  0.79936000  1
  C  C187  1  0.15974000  0.26236000  0.29936000  1
  C  C188  1  0.67945000  0.75043000  0.34660000  1
  C  C189  1  0.75043000  0.67945000  0.84660000  1
  C  C190  1  0.60522000  0.82944000  0.06300000  1
  C  C191  1  0.82944000  0.60522000  0.56300000  1
  C  C192  1  0.65772000  0.78228000  0.37043000  1
  C  C193  1  0.78228000  0.65772000  0.87043000  1
  C  C194  1  0.28228000  0.15802000  0.87036000  1
  C  C195  1  0.15802000  0.28228000  0.37036000  1
  C  C196  1  0.64026000  0.80874000  0.12699000  1
  C  C197  1  0.80874000  0.64026000  0.62699000  1
  C  C198  1  0.56920000  0.88140000  0.26550000  1
  C  C199  1  0.88140000  0.56920000  0.76550000  1
  C  C200  1  0.65520000  0.79800000  0.74930000  1
  C  C201  1  0.79800000  0.65520000  0.24930000  1
  C  C202  1  0.69120000  0.76244000  0.29930000  1
  C  C203  1  0.76244000  0.69120000  0.79930000  1
  C  C204  1  0.26820000  0.20000000  0.24000000  1
  C  C205  1  0.20000000  0.26820000  0.74000000  1
  C  C206  1  0.58496000  0.88412000  0.35972000  1
  C  C207  1  0.88412000  0.58496000  0.85972000  1
  C  C208  1  0.66154000  0.80974000  0.20048000  1
  C  C209  1  0.80974000  0.66154000  0.70048000  1
  C  C210  1  0.64776000  0.82614000  0.34700000  1
  C  C211  1  0.82614000  0.64776000  0.84700000  1
  C  C212  1  0.56109000  0.91409000  0.38470000  1
  C  C213  1  0.91409000  0.56109000  0.88470000  1
  C  C214  1  0.71840000  0.75680000  0.75010000  1
  C  C215  1  0.75680000  0.71840000  0.25010000  1
  C  C216  1  0.63477000  0.84097000  0.08830000  1
  C  C217  1  0.84097000  0.63477000  0.58830000  1
  C  C218  1  0.62179000  0.85975000  0.37342000  1
  C  C219  1  0.85975000  0.62179000  0.87342000  1
  C  C220  1  0.38480000  0.09780000  0.74940000  1
  C  C221  1  0.09780000  0.38480000  0.24940000  1
  C  C222  1  0.30645000  0.18065000  0.77580000  1
  C  C223  1  0.18065000  0.30645000  0.27580000  1
  C  C224  1  0.68124000  0.80630000  0.27586000  1
  C  C225  1  0.80630000  0.68124000  0.77586000  1
  C  C226  1  0.31580000  0.17280000  0.25790000  1
  C  C227  1  0.17280000  0.31580000  0.75790000  1
  C  C228  1  0.57406000  0.91970000  0.42330000  1
  C  C229  1  0.91970000  0.57406000  0.92330000  1
  C  C230  1  0.38910000  0.10468000  0.56297000  1
  C  C231  1  0.10468000  0.38910000  0.06297000  1
  C  C232  1  0.67363000  0.82105000  0.15320000  1
  C  C233  1  0.82105000  0.67363000  0.65320000  1
  C  C234  1  0.65952000  0.83816000  0.29970000  1
  C  C235  1  0.83816000  0.65952000  0.79970000  1
  C  C236  1  0.54800000  0.95000000  0.45220000  1
  C  C237  1  0.95000000  0.54800000  0.95220000  1
  C  C238  1  0.36523000  0.13465000  0.58790000  1
  C  C239  1  0.13465000  0.36523000  0.08790000  1
  C  C240  1  0.63477000  0.86535000  0.41210000  1
  C  C241  1  0.86535000  0.63477000  0.91210000  1
  C  C242  1  0.45200000  0.05000000  0.54780000  1
  C  C243  1  0.05000000  0.45200000  0.04780000  1
  C  C244  1  0.34048000  0.16184000  0.70030000  1
  C  C245  1  0.16184000  0.34048000  0.20030000  1
  C  C246  1  0.32637000  0.17895000  0.84680000  1
  C  C247  1  0.17895000  0.32637000  0.34680000  1
  C  C248  1  0.61090000  0.89532000  0.43703000  1
  C  C249  1  0.89532000  0.61090000  0.93703000  1
  C  C250  1  0.42594000  0.08030000  0.57670000  1
  C  C251  1  0.08030000  0.42594000  0.07670000  1
  C  C252  1  0.68420000  0.82720000  0.74210000  1
  C  C253  1  0.82720000  0.68420000  0.24210000  1
  C  C254  1  0.31876000  0.19370000  0.72414000  1
  C  C255  1  0.19370000  0.31876000  0.22414000  1
  C  C256  1  0.69355000  0.81935000  0.22420000  1
  C  C257  1  0.81935000  0.69355000  0.72420000  1
  C  C258  1  0.61520000  0.90220000  0.25060000  1
  C  C259  1  0.90220000  0.61520000  0.75060000  1
  C  C260  1  0.37821000  0.14025000  0.62658000  1
  C  C261  1  0.14025000  0.37821000  0.12658000  1
  C  C262  1  0.36523000  0.15903000  0.91170000  1
  C  C263  1  0.15903000  0.36523000  0.41170000  1
  C  C264  1  0.28160000  0.24320000  0.24990000  1
  C  C265  1  0.24320000  0.28160000  0.74990000  1
  C  C266  1  0.43891000  0.08591000  0.61530000  1
  C  C267  1  0.08591000  0.43891000  0.11530000  1
  C  C268  1  0.35224000  0.17386000  0.65300000  1
  C  C269  1  0.17386000  0.35224000  0.15300000  1
  C  C270  1  0.33846000  0.19026000  0.79952000  1
  C  C271  1  0.19026000  0.33846000  0.29952000  1
  C  C272  1  0.41504000  0.11588000  0.64028000  1
  C  C273  1  0.11588000  0.41504000  0.14028000  1
  C  C274  1  0.73180000  0.80000000  0.76000000  1
  C  C275  1  0.80000000  0.73180000  0.26000000  1
  C  C276  1  0.30880000  0.23756000  0.70070000  1
  C  C277  1  0.23756000  0.30880000  0.20070000  1
  C  C278  1  0.34480000  0.20200000  0.25070000  1
  C  C279  1  0.20200000  0.34480000  0.75070000  1
  C  C280  1  0.43080000  0.11860000  0.73450000  1
  C  C281  1  0.11860000  0.43080000  0.23450000  1
  C  C282  1  0.35974000  0.19126000  0.87301000  1
  C  C283  1  0.19126000  0.35974000  0.37301000  1
  C  C284  1  0.71772000  0.84198000  0.12964000  1
  C  C285  1  0.84198000  0.71772000  0.62964000  1
  C  C286  1  0.34228000  0.21772000  0.62957000  1
  C  C287  1  0.21772000  0.34228000  0.12957000  1
  C  C288  1  0.39478000  0.17056000  0.93700000  1
  C  C289  1  0.17056000  0.39478000  0.43700000  1
  C  C290  1  0.32055000  0.24957000  0.65340000  1
  C  C291  1  0.24957000  0.32055000  0.15340000  1
  C  C292  1  0.73764000  0.84026000  0.20064000  1
  C  C293  1  0.84026000  0.73764000  0.70064000  1
  C  C294  1  0.31346000  0.26484000  0.14009000  1
  C  C295  1  0.26484000  0.31346000  0.64009000  1
  C  C296  1  0.41660000  0.17840000  0.77380000  1
  C  C297  1  0.17840000  0.41660000  0.27380000  1
  C  C298  1  0.74972000  0.85158000  0.15336000  1
  C  C299  1  0.85158000  0.74972000  0.65336000  1
  C  C300  1  0.68430000  0.91830000  0.27250000  1
  C  C301  1  0.91830000  0.68430000  0.77250000  1
  C  C302  1  0.30861000  0.29607000  0.62650000  1
  C  C303  1  0.29607000  0.30861000  0.12650000  1
  C  C304  1  0.76360000  0.84440000  0.77060000  1
  C  C305  1  0.84440000  0.76360000  0.27060000  1
  C  C306  1  0.35581000  0.25335000  0.11510000  1
  C  C307  1  0.25335000  0.35581000  0.61510000  1
  C  C308  1  0.80400000  0.81380000  0.22080000  1
  C  C309  1  0.81380000  0.80400000  0.72080000  1
  C  C310  1  0.38380000  0.23502000  0.85952000  1
  C  C311  1  0.23502000  0.38380000  0.35952000  1
  C  C312  1  0.54760000  0.07420000  0.45170000  1
  C  C313  1  0.07420000  0.54760000  0.95170000  1
  C  C314  1  0.32310000  0.30370000  0.72800000  1
  C  C315  1  0.30370000  0.32310000  0.22800000  1
  C  C316  1  0.41884000  0.21432000  0.92351000  1
  C  C317  1  0.21432000  0.41884000  0.42351000  1
  C  C318  1  0.67610000  0.96550000  0.25720000  1
  C  C319  1  0.96550000  0.67610000  0.75720000  1
  C  C320  1  0.34290000  0.30110000  0.24080000  1
  C  C321  1  0.30110000  0.34290000  0.74080000  1
  C  C322  1  0.49430000  0.15250000  0.74190000  1
  C  C323  1  0.15250000  0.49430000  0.24190000  1
  C  C324  1  0.81270000  0.83450000  0.74940000  1
  C  C325  1  0.83450000  0.81270000  0.24940000  1
  C  C326  1  0.38450000  0.26290000  0.75900000  1
  C  C327  1  0.26290000  0.38450000  0.25900000  1
  C  C328  1  0.46280000  0.19700000  0.75650000  1
  C  C329  1  0.19700000  0.46280000  0.25650000  1
  C  C330  1  0.41336000  0.24656000  0.88480000  1
  C  C331  1  0.24656000  0.41336000  0.38480000  1
  C  C332  1  0.36020000  0.30000000  0.77530000  1
  C  C333  1  0.30000000  0.36020000  0.27530000  1
  C  C334  1  0.34088000  0.32100000  0.58790000  1
  C  C335  1  0.32100000  0.34088000  0.08790000  1
  C  C336  1  0.77480000  0.89100000  0.23930000  1
  C  C337  1  0.89100000  0.77480000  0.73930000  1
  C  C338  1  0.38076000  0.28562000  0.07640000  1
  C  C339  1  0.28562000  0.38076000  0.57640000  1
  C  C340  1  0.79635000  0.87805000  0.12715000  1
  C  C341  1  0.87805000  0.79635000  0.62715000  1
  C  C342  1  0.45020000  0.22780000  0.95130000  1
  C  C343  1  0.22780000  0.45020000  0.45130000  1
  C  C344  1  0.82107000  0.86485000  0.08850000  1
  C  C345  1  0.86485000  0.82107000  0.58850000  1
  C  C346  1  0.36335000  0.32939000  0.06286000  1
  C  C347  1  0.32939000  0.36335000  0.56286000  1
  C  C348  1  0.57408000  0.11884000  0.42360000  1
  C  C349  1  0.11884000  0.57408000  0.92360000  1
  C  C350  1  0.35580000  0.33780000  0.26200000  1
  C  C351  1  0.33780000  0.35580000  0.76200000  1
  C  C352  1  0.42680000  0.27220000  0.04810000  1
  C  C353  1  0.27220000  0.42680000  0.54810000  1
  C  C354  1  0.56118000  0.14388000  0.38490000  1
  C  C355  1  0.14388000  0.56118000  0.88490000  1
  C  C356  1  0.76600000  0.94040000  0.22720000  1
  C  C357  1  0.94040000  0.76600000  0.72720000  1
  C  C358  1  0.41070000  0.30350000  0.78390000  1
  C  C359  1  0.30350000  0.41070000  0.28390000  1
  C  C360  1  0.72490000  0.98950000  0.24030000  1
  C  C361  1  0.98950000  0.72490000  0.74030000  1
  C  C362  1  0.81385000  0.91517000  0.14040000  1
  C  C363  1  0.91517000  0.81385000  0.64040000  1
  C  C364  1  0.83290000  0.91170000  0.24810000  1
  C  C365  1  0.91170000  0.83290000  0.74810000  1
  C  C366  1  0.46060000  0.28600000  0.77350000  1
  C  C367  1  0.28600000  0.46060000  0.27350000  1
  C  C368  1  0.61104000  0.13606000  0.43725000  1
  C  C369  1  0.13606000  0.61104000  0.93725000  1
  C  C370  1  0.86329000  0.88877000  0.06317000  1
  C  C371  1  0.88877000  0.86329000  0.56317000  1
  C  C372  1  0.58523000  0.18615000  0.35994000  1
  C  C373  1  0.18615000  0.58523000  0.85994000  1
  C  C374  1  0.82190000  0.96230000  0.23550000  1
  C  C375  1  0.96230000  0.82190000  0.73550000  1
  C  C376  1  0.85607000  0.93909000  0.11500000  1
  C  C377  1  0.93909000  0.85607000  0.61500000  1
  C  C378  1  0.57430000  0.22770000  0.95130000  1
  C  C379  1  0.22770000  0.57430000  0.45130000  1
  C  C380  1  0.63620000  0.16998000  0.93659000  1
  C  C381  1  0.16998000  0.63620000  0.43659000  1
  C  C382  1  0.88079000  0.92589000  0.07643000  1
  C  C383  1  0.92589000  0.88079000  0.57643000  1
  C  C384  1  0.66990000  0.14030000  0.78130000  1
  C  C385  1  0.14030000  0.66990000  0.28130000  1
  C  C386  1  0.63510000  0.17834000  0.41230000  1
  C  C387  1  0.17834000  0.63510000  0.91230000  1
  C  C388  1  0.54940000  0.27340000  0.04910000  1
  C  C389  1  0.27340000  0.54940000  0.54910000  1
  C  C390  1  0.62220000  0.20338000  0.37360000  1
  C  C391  1  0.20338000  0.62220000  0.87360000  1
  C  C392  1  0.61882000  0.21380000  0.92320000  1
  C  C393  1  0.21380000  0.61882000  0.42320000  1
  C  C394  1  0.67857000  0.15859000  0.91150000  1
  C  C395  1  0.15859000  0.67857000  0.41150000  1
  C  C396  1  0.54040000  0.29920000  0.25090000  1
  C  C397  1  0.29920000  0.54040000  0.75090000  1
  C  C398  1  0.58649000  0.25341000  0.11500000  1
  C  C399  1  0.25341000  0.58649000  0.61500000  1
  C  C400  1  0.82330000  0.04010000  0.73300000  1
  C  C401  1  0.04010000  0.82330000  0.23300000  1
  C  C402  1  0.58077000  0.28585000  0.07649000  1
  C  C403  1  0.28585000  0.58077000  0.57649000  1
  C  C404  1  0.69720000  0.18200000  0.77540000  1
  C  C405  1  0.18200000  0.69720000  0.27540000  1
  C  C406  1  0.92660000  0.95280000  0.04820000  1
  C  C407  1  0.95280000  0.92660000  0.54820000  1
  C  C408  1  0.61612000  0.26480000  0.14026000  1
  C  C409  1  0.26480000  0.61612000  0.64026000  1
  C  C410  1  0.68470000  0.19670000  0.26480000  1
  C  C411  1  0.19670000  0.68470000  0.76480000  1
  C  C412  1  0.76120000  0.12680000  0.23360000  1
  C  C413  1  0.12680000  0.76120000  0.73360000  1
  C  C414  1  0.69990000  0.18930000  0.21970000  1
  C  C415  1  0.18930000  0.69990000  0.71970000  1
  C  C416  1  0.64380000  0.24622000  0.88470000  1
  C  C417  1  0.24622000  0.64380000  0.38470000  1
  C  C418  1  0.70354000  0.19102000  0.87300000  1
  C  C419  1  0.19102000  0.70354000  0.37300000  1
  C  C420  1  0.81070000  0.08690000  0.72530000  1
  C  C421  1  0.08690000  0.81070000  0.22530000  1
  C  C422  1  0.64926000  0.24984000  0.34680000  1
  C  C423  1  0.24984000  0.64926000  0.84680000  1
  C  C424  1  0.58230000  0.32050000  0.22040000  1
  C  C425  1  0.32050000  0.58230000  0.72040000  1
  C  C426  1  0.52890000  0.38350000  0.24820000  1
  C  C427  1  0.38350000  0.52890000  0.74820000  1
  C  C428  1  0.68615000  0.23483000  0.85962000  1
  C  C429  1  0.23483000  0.68615000  0.35962000  1
  C  C430  1  0.66121000  0.26147000  0.29950000  1
  C  C431  1  0.26147000  0.66121000  0.79950000  1
  C  C432  1  0.74986000  0.17750000  0.84666000  1
  C  C433  1  0.17750000  0.74986000  0.34666000  1
  C  C434  1  0.81280000  0.11880000  0.22030000  1
  C  C435  1  0.11880000  0.81280000  0.72030000  1
  C  C436  1  0.51620000  0.41700000  0.20860000  1
  C  C437  1  0.41700000  0.51620000  0.70860000  1
  C  C438  1  0.60470000  0.32968000  0.06321000  1
  C  C439  1  0.32968000  0.60470000  0.56321000  1
  C  C440  1  0.78252000  0.15720000  0.87016000  1
  C  C441  1  0.15720000  0.78252000  0.37016000  1
  C  C442  1  0.65744000  0.28256000  0.37031000  1
  C  C443  1  0.28256000  0.65744000  0.87031000  1
  C  C444  1  0.64005000  0.30863000  0.12698000  1
  C  C445  1  0.30863000  0.64005000  0.62698000  1
  C  C446  1  0.76147000  0.18927000  0.79937000  1
  C  C447  1  0.18927000  0.76147000  0.29937000  1
  C  C448  1  0.87620000  0.08920000  0.24720000  1
  C  C449  1  0.08920000  0.87620000  0.74720000  1
  C  C450  1  0.88348000  0.08568000  0.85952000  1
  C  C451  1  0.08568000  0.88348000  0.35952000  1
  C  C452  1  0.66147000  0.31047000  0.20070000  1
  C  C453  1  0.31047000  0.66147000  0.70070000  1
  C  C454  1  0.91301000  0.06133000  0.88470000  1
  C  C455  1  0.06133000  0.91301000  0.38470000  1
  C  C456  1  0.63433000  0.34107000  0.08840000  1
  C  C457  1  0.34107000  0.63433000  0.58840000  1
  C  C458  1  0.82679000  0.14867000  0.84638000  1
  C  C459  1  0.14867000  0.82679000  0.34638000  1
  C  C460  1  0.85963000  0.12289000  0.87300000  1
  C  C461  1  0.12289000  0.85963000  0.37300000  1
  C  C462  1  0.80574000  0.18072000  0.77559000  1
  C  C463  1  0.18072000  0.80574000  0.27559000  1
  C  C464  1  0.68135000  0.30581000  0.27574000  1
  C  C465  1  0.30581000  0.68135000  0.77574000  1
  C  C466  1  0.91869000  0.07419000  0.92340000  1
  C  C467  1  0.07419000  0.91869000  0.42340000  1
  C  C468  1  0.88860000  0.10516000  0.56311000  1
  C  C469  1  0.10516000  0.88860000  0.06311000  1
  C  C470  1  0.67310000  0.32242000  0.15340000  1
  C  C471  1  0.32242000  0.67310000  0.65340000  1
  C  C472  1  0.95040000  0.04760000  0.95230000  1
  C  C473  1  0.04760000  0.95040000  0.45230000  1
  C  C474  1  0.52160000  0.47700000  0.27420000  1
  C  C475  1  0.47700000  0.52160000  0.77420000  1
  C  C476  1  0.83839000  0.16043000  0.79910000  1
  C  C477  1  0.16043000  0.83839000  0.29910000  1
  C  C478  1  0.86425000  0.13469000  0.58830000  1
  C  C479  1  0.13469000  0.86425000  0.08830000  1
  Cu  Cu480  1  0.02979000  0.99349000  0.52629000  1
  Cu  Cu481  1  0.99349000  0.02979000  0.02629000  1
  Cu  Cu482  1  0.49345000  0.70711000  0.02624000  1
  Cu  Cu483  1  0.70711000  0.49345000  0.52624000  1
  Cu  Cu484  1  0.50664000  0.79300000  0.97363000  1
  Cu  Cu485  1  0.79300000  0.50664000  0.47363000  1
  Cu  Cu486  1  0.47028000  0.00666000  0.47369000  1
  Cu  Cu487  1  0.00666000  0.47028000  0.97369000  1
  Cu  Cu488  1  0.52972000  0.99334000  0.52631000  1
  Cu  Cu489  1  0.99334000  0.52972000  0.02631000  1
  Cu  Cu490  1  0.49336000  0.20700000  0.02637000  1
  Cu  Cu491  1  0.20700000  0.49336000  0.52637000  1
  Cu  Cu492  1  0.50655000  0.29289000  0.97376000  1
  Cu  Cu493  1  0.29289000  0.50655000  0.47376000  1
  Cu  Cu494  1  0.97021000  0.00651000  0.47371000  1
  Cu  Cu495  1  0.00651000  0.97021000  0.97371000  1
  H  H496  1  0.16090000  0.84910000  0.42080000  1
  H  H497  1  0.84910000  0.16090000  0.92080000  1
  H  H498  1  0.12010000  0.89870000  0.46310000  1
  H  H499  1  0.89870000  0.12010000  0.96310000  1
  H  H500  1  0.37070000  0.65050000  0.57950000  1
  H  H501  1  0.65050000  0.37070000  0.07950000  1
  H  H502  1  0.07080000  0.96380000  0.12440000  1
  H  H503  1  0.96380000  0.07080000  0.62440000  1
  H  H504  1  0.29700000  0.74320000  0.16640000  1
  H  H505  1  0.74320000  0.29700000  0.66640000  1
  H  H506  1  0.12040000  0.92300000  0.16660000  1
  H  H507  1  0.92300000  0.12040000  0.66660000  1
  H  H508  1  0.39920000  0.64840000  0.96280000  1
  H  H509  1  0.64840000  0.39920000  0.46280000  1
  H  H510  1  0.22530000  0.85070000  0.09790000  1
  H  H511  1  0.35070000  0.72530000  0.59770000  1
  H  H512  1  0.72530000  0.35070000  0.09770000  1
  H  H513  1  0.85070000  0.22530000  0.59790000  1
  H  H514  1  0.36800000  0.72420000  0.12430000  1
  H  H515  1  0.72420000  0.36800000  0.62430000  1
  H  H516  1  0.38000000  0.75720000  0.83370000  1
  H  H517  1  0.75720000  0.38000000  0.33370000  1
  H  H518  1  0.33990000  0.81010000  0.57850000  1
  H  H519  1  0.81010000  0.33990000  0.07850000  1
  H  H520  1  0.13210000  0.03590000  0.87600000  1
  H  H521  1  0.03590000  0.13210000  0.37600000  1
  H  H522  1  0.30970000  0.87110000  0.07940000  1
  H  H523  1  0.87110000  0.30970000  0.57940000  1
  H  H524  1  0.42970000  0.77630000  0.87600000  1
  H  H525  1  0.77630000  0.42970000  0.37600000  1
  H  H526  1  0.42350000  0.79690000  0.66620000  1
  H  H527  1  0.79690000  0.42350000  0.16620000  1
  H  H528  1  0.38070000  0.85190000  0.03740000  1
  H  H529  1  0.85190000  0.38070000  0.53740000  1
  H  H530  1  0.12020000  0.12000000  0.46290000  1
  H  H531  1  0.12000000  0.12020000  0.96290000  1
  H  H532  1  0.38030000  0.88090000  0.53660000  1
  H  H533  1  0.88090000  0.38030000  0.03660000  1
  H  H534  1  0.61980000  0.64880000  0.96330000  1
  H  H535  1  0.64880000  0.61980000  0.46330000  1
  H  H536  1  0.20290000  0.07590000  0.83350000  1
  H  H537  1  0.07590000  0.20290000  0.33350000  1
  H  H538  1  0.57040000  0.72380000  0.12440000  1
  H  H539  1  0.72380000  0.57040000  0.62440000  1
  H  H540  1  0.62950000  0.69070000  0.42130000  1
  H  H541  1  0.69070000  0.62950000  0.92130000  1
  H  H542  1  0.46380000  0.86780000  0.62430000  1
  H  H543  1  0.86780000  0.46380000  0.12430000  1
  H  H544  1  0.19080000  0.16020000  0.92040000  1
  H  H545  1  0.16020000  0.19080000  0.42040000  1
  H  H546  1  0.61990000  0.74310000  0.16670000  1
  H  H547  1  0.74310000  0.61990000  0.66666667  1
  H  H548  1  0.63240000  0.77620000  0.87570000  1
  H  H549  1  0.77620000  0.63240000  0.37570000  1
  H  H550  1  0.64980000  0.77420000  0.40240000  1
  H  H551  1  0.77420000  0.64980000  0.90240000  1
  H  H552  1  0.27410000  0.15030000  0.90230000  1
  H  H553  1  0.15030000  0.27410000  0.40230000  1
  H  H554  1  0.60150000  0.85130000  0.03680000  1
  H  H555  1  0.85130000  0.60150000  0.53680000  1
  H  H556  1  0.57620000  0.88040000  0.33360000  1
  H  H557  1  0.88040000  0.57620000  0.83360000  1
  H  H558  1  0.70340000  0.75700000  0.83380000  1
  H  H559  1  0.75700000  0.70340000  0.33380000  1
  H  H560  1  0.53620000  0.93060000  0.37540000  1
  H  H561  1  0.93060000  0.53620000  0.87540000  1
  H  H562  1  0.34900000  0.12940000  0.92090000  1
  H  H563  1  0.12940000  0.34900000  0.42090000  1
  H  H564  1  0.38030000  0.10090000  0.53680000  1
  H  H565  1  0.10090000  0.38030000  0.03680000  1
  H  H566  1  0.34030000  0.15110000  0.57870000  1
  H  H567  1  0.15110000  0.34030000  0.07870000  1
  H  H568  1  0.65970000  0.84890000  0.42130000  1
  H  H569  1  0.84890000  0.65970000  0.92130000  1
  H  H570  1  0.61970000  0.89910000  0.46320000  1
  H  H571  1  0.89910000  0.61970000  0.96320000  1
  H  H572  1  0.65100000  0.87060000  0.07910000  1
  H  H573  1  0.87060000  0.65100000  0.57910000  1
  H  H574  1  0.46380000  0.06940000  0.62460000  1
  H  H575  1  0.06940000  0.46380000  0.12460000  1
  H  H576  1  0.29660000  0.24300000  0.16620000  1
  H  H577  1  0.24300000  0.29660000  0.66620000  1
  H  H578  1  0.42380000  0.11960000  0.66640000  1
  H  H579  1  0.11960000  0.42380000  0.16640000  1
  H  H580  1  0.39850000  0.14870000  0.96320000  1
  H  H581  1  0.14870000  0.39850000  0.46320000  1
  H  H582  1  0.72590000  0.84970000  0.09770000  1
  H  H583  1  0.84970000  0.72590000  0.59770000  1
  H  H584  1  0.35020000  0.22580000  0.59760000  1
  H  H585  1  0.22580000  0.35020000  0.09760000  1
  H  H586  1  0.36760000  0.22380000  0.12430000  1
  H  H587  1  0.22380000  0.36760000  0.62430000  1
  H  H588  1  0.38010000  0.25690000  0.83330000  1
  H  H589  1  0.25690000  0.38010000  0.33333333  1
  H  H590  1  0.80920000  0.83980000  0.07960000  1
  H  H591  1  0.83980000  0.80920000  0.57960000  1
  H  H592  1  0.53620000  0.13220000  0.37570000  1
  H  H593  1  0.13220000  0.53620000  0.87570000  1
  H  H594  1  0.37050000  0.30930000  0.57870000  1
  H  H595  1  0.30930000  0.37050000  0.07870000  1
  H  H596  1  0.42960000  0.27620000  0.87560000  1
  H  H597  1  0.27620000  0.42960000  0.37560000  1
  H  H598  1  0.79710000  0.92410000  0.16650000  1
  H  H599  1  0.92410000  0.79710000  0.66650000  1
  H  H600  1  0.38020000  0.35120000  0.03670000  1
  H  H601  1  0.35120000  0.38020000  0.53670000  1
  H  H602  1  0.61970000  0.11910000  0.46340000  1
  H  H603  1  0.11910000  0.61970000  0.96340000  1
  H  H604  1  0.87980000  0.88000000  0.53710000  1
  H  H605  1  0.88000000  0.87980000  0.03710000  1
  H  H606  1  0.61930000  0.14810000  0.96260000  1
  H  H607  1  0.14810000  0.61930000  0.46260000  1
  H  H608  1  0.57650000  0.20310000  0.33380000  1
  H  H609  1  0.20310000  0.57650000  0.83380000  1
  H  H610  1  0.57030000  0.22370000  0.12400000  1
  H  H611  1  0.22370000  0.57030000  0.62400000  1
  H  H612  1  0.69030000  0.12890000  0.92060000  1
  H  H613  1  0.12890000  0.69030000  0.42060000  1
  H  H614  1  0.86790000  0.96410000  0.12400000  1
  H  H615  1  0.96410000  0.86790000  0.62400000  1
  H  H616  1  0.66010000  0.18990000  0.42150000  1
  H  H617  1  0.18990000  0.66010000  0.92150000  1
  H  H618  1  0.62000000  0.24280000  0.16630000  1
  H  H619  1  0.24280000  0.62000000  0.66630000  1
  H  H620  1  0.63200000  0.27580000  0.87570000  1
  H  H621  1  0.27580000  0.63200000  0.37570000  1
  H  H622  1  0.64930000  0.27470000  0.40230000  1
  H  H623  1  0.77470000  0.14930000  0.90210000  1
  H  H624  1  0.14930000  0.77470000  0.40210000  1
  H  H625  1  0.27470000  0.64930000  0.90230000  1
  H  H626  1  0.60080000  0.35160000  0.03720000  1
  H  H627  1  0.35160000  0.60080000  0.53720000  1
  H  H628  1  0.87960000  0.07700000  0.83340000  1
  H  H629  1  0.07700000  0.87960000  0.33333333  1
  H  H630  1  0.70300000  0.25680000  0.83360000  1
  H  H631  1  0.25680000  0.70300000  0.33360000  1
  H  H632  1  0.92920000  0.03620000  0.87560000  1
  H  H633  1  0.03620000  0.92920000  0.37560000  1
  H  H634  1  0.62930000  0.34950000  0.42050000  1
  H  H635  1  0.34950000  0.62930000  0.92050000  1
  H  H636  1  0.87990000  0.10130000  0.53690000  1
  H  H637  1  0.10130000  0.87990000  0.03690000  1
  H  H638  1  0.83910000  0.15090000  0.57920000  1
  H  H639  1  0.15090000  0.83910000  0.07920000  1
  O  O640  1  0.06238000  0.95690000  0.48430000  1
  O  O641  1  0.95690000  0.06238000  0.98430000  1
  O  O642  1  0.03180000  0.98848000  0.06069000  1
  O  O643  1  0.98848000  0.03180000  0.56069000  1
  O  O644  1  0.15110000  0.88310000  0.27620000  1
  O  O645  1  0.88310000  0.15110000  0.77620000  1
  O  O646  1  0.26830000  0.78490000  0.22520000  1
  O  O647  1  0.78490000  0.26830000  0.72520000  1
  O  O648  1  0.06117000  0.01095000  0.93940000  1
  O  O649  1  0.01095000  0.06117000  0.43940000  1
  O  O650  1  0.51960000  0.55400000  0.76860000  1
  O  O651  1  0.55400000  0.51960000  0.26860000  1
  O  O652  1  0.38250000  0.71130000  0.77590000  1
  O  O653  1  0.71130000  0.38250000  0.27590000  1
  O  O654  1  0.17540000  0.92260000  0.74470000  1
  O  O655  1  0.92260000  0.17540000  0.24470000  1
  O  O656  1  0.06192000  0.05098000  0.48500000  1
  O  O657  1  0.05098000  0.06192000  0.98500000  1
  O  O658  1  0.26990000  0.84870000  0.79490000  1
  O  O659  1  0.84870000  0.26990000  0.29490000  1
  O  O660  1  0.34940000  0.77060000  0.72430000  1
  O  O661  1  0.77060000  0.34940000  0.22430000  1
  O  O662  1  0.14640000  0.97680000  0.23900000  1
  O  O663  1  0.97680000  0.14640000  0.73900000  1
  O  O664  1  0.49130000  0.66070000  0.75800000  1
  O  O665  1  0.66070000  0.49130000  0.25800000  1
  O  O666  1  0.45693000  0.69585000  0.98400000  1
  O  O667  1  0.69585000  0.45693000  0.48400000  1
  O  O668  1  0.43782000  0.73086000  0.06000000  1
  O  O669  1  0.73086000  0.43782000  0.56000000  1
  O  O670  1  0.35990000  0.82650000  0.24410000  1
  O  O671  1  0.82650000  0.35990000  0.74410000  1
  O  O672  1  0.46792000  0.76798000  0.94010000  1
  O  O673  1  0.76798000  0.46792000  0.44010000  1
  O  O674  1  0.55120000  0.69590000  0.98500000  1
  O  O675  1  0.69590000  0.55120000  0.48500000  1
  O  O676  1  0.22780000  0.02160000  0.75160000  1
  O  O677  1  0.02160000  0.22780000  0.25160000  1
  O  O678  1  0.44893000  0.80417000  0.01600000  1
  O  O679  1  0.80417000  0.44893000  0.51600000  1
  O  O680  1  0.53105000  0.73059000  0.06060000  1
  O  O681  1  0.73059000  0.53105000  0.56060000  1
  O  O682  1  0.61370000  0.65570000  0.23830000  1
  O  O683  1  0.65570000  0.61370000  0.73830000  1
  O  O684  1  0.53210000  0.76850000  0.21810000  1
  O  O685  1  0.76850000  0.53210000  0.71810000  1
  O  O686  1  0.16020000  0.14300000  0.73590000  1
  O  O687  1  0.14300000  0.16020000  0.23590000  1
  O  O688  1  0.56186000  0.76854000  0.94000000  1
  O  O689  1  0.76854000  0.56186000  0.44000000  1
  O  O690  1  0.54345000  0.80433000  0.01540000  1
  O  O691  1  0.80433000  0.54345000  0.51540000  1
  O  O692  1  0.22900000  0.15280000  0.77620000  1
  O  O693  1  0.15280000  0.22900000  0.27620000  1
  O  O694  1  0.43775000  0.94893000  0.51570000  1
  O  O695  1  0.94893000  0.43775000  0.01570000  1
  O  O696  1  0.64480000  0.74600000  0.75940000  1
  O  O697  1  0.74600000  0.64480000  0.25940000  1
  O  O698  1  0.61780000  0.78920000  0.22470000  1
  O  O699  1  0.78920000  0.61780000  0.72470000  1
  O  O700  1  0.48880000  0.93800000  0.56030000  1
  O  O701  1  0.93800000  0.48880000  0.06030000  1
  O  O702  1  0.53060000  0.89860000  0.25530000  1
  O  O703  1  0.89860000  0.53060000  0.75530000  1
  O  O704  1  0.28080000  0.15200000  0.24310000  1
  O  O705  1  0.15200000  0.28080000  0.74310000  1
  O  O706  1  0.70980000  0.72900000  0.27580000  1
  O  O707  1  0.72900000  0.70980000  0.77580000  1
  O  O708  1  0.34820000  0.11700000  0.72520000  1
  O  O709  1  0.11700000  0.34820000  0.22520000  1
  O  O710  1  0.51195000  0.96831000  0.43960000  1
  O  O711  1  0.96831000  0.51195000  0.93960000  1
  O  O712  1  0.43799000  0.04305000  0.51570000  1
  O  O713  1  0.04305000  0.43799000  0.01570000  1
  O  O714  1  0.56201000  0.95695000  0.48430000  1
  O  O715  1  0.95695000  0.56201000  0.98430000  1
  O  O716  1  0.48805000  0.03169000  0.56040000  1
  O  O717  1  0.03169000  0.48805000  0.06040000  1
  O  O718  1  0.65180000  0.88300000  0.27480000  1
  O  O719  1  0.88300000  0.65180000  0.77480000  1
  O  O720  1  0.29020000  0.27100000  0.72420000  1
  O  O721  1  0.27100000  0.29020000  0.22420000  1
  O  O722  1  0.71920000  0.84800000  0.75690000  1
  O  O723  1  0.84800000  0.71920000  0.25690000  1
  O  O724  1  0.46940000  0.10140000  0.74470000  1
  O  O725  1  0.10140000  0.46940000  0.24470000  1
  O  O726  1  0.51120000  0.06200000  0.43970000  1
  O  O727  1  0.06200000  0.51120000  0.93970000  1
  O  O728  1  0.38220000  0.21080000  0.77530000  1
  O  O729  1  0.21080000  0.38220000  0.27530000  1
  O  O730  1  0.35520000  0.25400000  0.24060000  1
  O  O731  1  0.25400000  0.35520000  0.74060000  1
  O  O732  1  0.56225000  0.05107000  0.48430000  1
  O  O733  1  0.05107000  0.56225000  0.98430000  1
  O  O734  1  0.77100000  0.84720000  0.22380000  1
  O  O735  1  0.84720000  0.77100000  0.72380000  1
  O  O736  1  0.45655000  0.19567000  0.98460000  1
  O  O737  1  0.19567000  0.45655000  0.48460000  1
  O  O738  1  0.43814000  0.23146000  0.06000000  1
  O  O739  1  0.23146000  0.43814000  0.56000000  1
  O  O740  1  0.83980000  0.85700000  0.26410000  1
  O  O741  1  0.85700000  0.83980000  0.76410000  1
  O  O742  1  0.46790000  0.23150000  0.78190000  1
  O  O743  1  0.23150000  0.46790000  0.28190000  1
  O  O744  1  0.38630000  0.34430000  0.76170000  1
  O  O745  1  0.34430000  0.38630000  0.26170000  1
  O  O746  1  0.46895000  0.26941000  0.93940000  1
  O  O747  1  0.26941000  0.46895000  0.43940000  1
  O  O748  1  0.55107000  0.19583000  0.98400000  1
  O  O749  1  0.19583000  0.55107000  0.48400000  1
  O  O750  1  0.77220000  0.97840000  0.24840000  1
  O  O751  1  0.97840000  0.77220000  0.74840000  1
  O  O752  1  0.44880000  0.30410000  0.01500000  1
  O  O753  1  0.30410000  0.44880000  0.51500000  1
  O  O754  1  0.53208000  0.23202000  0.05990000  1
  O  O755  1  0.23202000  0.53208000  0.55990000  1
  O  O756  1  0.64010000  0.17350000  0.75590000  1
  O  O757  1  0.17350000  0.64010000  0.25590000  1
  O  O758  1  0.56218000  0.26914000  0.94000000  1
  O  O759  1  0.26914000  0.56218000  0.44000000  1
  O  O760  1  0.54307000  0.30415000  0.01600000  1
  O  O761  1  0.30415000  0.54307000  0.51600000  1
  O  O762  1  0.50870000  0.33930000  0.24200000  1
  O  O763  1  0.33930000  0.50870000  0.74200000  1
  O  O764  1  0.85360000  0.02320000  0.76100000  1
  O  O765  1  0.02320000  0.85360000  0.26100000  1
  O  O766  1  0.65060000  0.22940000  0.27570000  1
  O  O767  1  0.22940000  0.65060000  0.77570000  1
  O  O768  1  0.73010000  0.15130000  0.20510000  1
  O  O769  1  0.15130000  0.73010000  0.70510000  1
  O  O770  1  0.93808000  0.94902000  0.51500000  1
  O  O771  1  0.94902000  0.93808000  0.01500000  1
  O  O772  1  0.82460000  0.07740000  0.25530000  1
  O  O773  1  0.07740000  0.82460000  0.75530000  1
  O  O774  1  0.61750000  0.28870000  0.22410000  1
  O  O775  1  0.28870000  0.61750000  0.72410000  1
  O  O776  1  0.48040000  0.44600000  0.23140000  1
  O  O777  1  0.44600000  0.48040000  0.73140000  1
  O  O778  1  0.93883000  0.98905000  0.06060000  1
  O  O779  1  0.98905000  0.93883000  0.56060000  1
  O  O780  1  0.73170000  0.21510000  0.77480000  1
  O  O781  1  0.21510000  0.73170000  0.27480000  1
  O  O782  1  0.84890000  0.11690000  0.72380000  1
  O  O783  1  0.11690000  0.84890000  0.22380000  1
  O  O784  1  0.96820000  0.01152000  0.93931000  1
  O  O785  1  0.01152000  0.96820000  0.43931000  1
  O  O786  1  0.93762000  0.04310000  0.51570000  1
  O  O787  1  0.04310000  0.93762000  0.01570000  1
