# generated using pymatgen
data_EuC3O5
_symmetry_space_group_name_H-M   'P 1'
_cell_length_a   4.81050000
_cell_length_b   7.67620000
_cell_length_c   17.84480000
_cell_angle_alpha   90.00000000
_cell_angle_beta   90.00000000
_cell_angle_gamma   90.00000000
_symmetry_Int_Tables_number   1
_chemical_formula_structural   EuC3O5
_chemical_formula_sum   'Eu4 C12 O20'
_cell_volume   658.94351071
_cell_formula_units_Z   4
loop_
 _symmetry_equiv_pos_site_id
 _symmetry_equiv_pos_as_xyz
  1  'x, y, z'
loop_
 _atom_site_type_symbol
 _atom_site_label
 _atom_site_symmetry_multiplicity
 _atom_site_fract_x
 _atom_site_fract_y
 _atom_site_fract_z
 _atom_site_occupancy
  Eu  Eu0  1  0.97021000  0.04265000  0.71096000  1
  Eu  Eu1  1  0.97021000  0.45735000  0.21096000  1
  Eu  Eu2  1  0.97021000  0.54265000  0.78904000  1
  Eu  Eu3  1  0.97021000  0.95735000  0.28904000  1
  C  C4  1  0.09330000  0.09560000  0.10690000  1
  C  C5  1  0.09330000  0.40440000  0.60690000  1
  C  C6  1  0.09330000  0.59560000  0.39310000  1
  C  C7  1  0.09330000  0.90440000  0.89310000  1
  C  C8  1  0.09690000  0.03350000  0.03080000  1
  C  C9  1  0.09690000  0.46650000  0.53080000  1
  C  C10  1  0.09690000  0.53350000  0.46920000  1
  C  C11  1  0.09690000  0.96650000  0.96920000  1
  C  C12  1  0.47800000  0.15950000  0.27720000  1
  C  C13  1  0.47800000  0.34050000  0.77720000  1
  C  C14  1  0.47800000  0.65950000  0.22280000  1
  C  C15  1  0.47800000  0.84050000  0.72280000  1
  O  O16  1  0.07010000  0.24480000  0.61455000  1
  O  O17  1  0.07010000  0.25520000  0.11455000  1
  O  O18  1  0.07010000  0.74480000  0.88545000  1
  O  O19  1  0.07010000  0.75520000  0.38545000  1
  O  O20  1  0.09490000  0.02050000  0.84446000  1
  O  O21  1  0.09490000  0.47950000  0.34446000  1
  O  O22  1  0.09490000  0.52050000  0.65554000  1
  O  O23  1  0.09490000  0.97950000  0.15554000  1
  O  O24  1  0.23300000  0.19820000  0.23930000  1
  O  O25  1  0.23300000  0.30180000  0.73930000  1
  O  O26  1  0.23300000  0.69820000  0.26070000  1
  O  O27  1  0.23300000  0.80180000  0.76070000  1
  O  O28  1  0.46330000  0.01730000  0.31148000  1
  O  O29  1  0.46330000  0.48270000  0.81148000  1
  O  O30  1  0.46330000  0.51730000  0.18852000  1
  O  O31  1  0.46330000  0.98270000  0.68852000  1
  O  O32  1  0.70400000  0.24570000  0.27748000  1
  O  O33  1  0.70400000  0.25430000  0.77748000  1
  O  O34  1  0.70400000  0.74570000  0.22252000  1
  O  O35  1  0.70400000  0.75430000  0.72252000  1
