# generated using pymatgen
data_YH3(C3O2)3
_symmetry_space_group_name_H-M   'P 1'
_cell_length_a   8.83260000
_cell_length_b   10.15900000
_cell_length_c   13.97900000
_cell_angle_alpha   90.00000000
_cell_angle_beta   90.00000000
_cell_angle_gamma   90.00000000
_symmetry_Int_Tables_number   1
_chemical_formula_structural   YH3(C3O2)3
_chemical_formula_sum   'Y4 H12 C36 O24'
_cell_volume   1254.34102955
_cell_formula_units_Z   4
loop_
 _symmetry_equiv_pos_site_id
 _symmetry_equiv_pos_as_xyz
  1  'x, y, z'
loop_
 _atom_site_type_symbol
 _atom_site_label
 _atom_site_symmetry_multiplicity
 _atom_site_fract_x
 _atom_site_fract_y
 _atom_site_fract_z
 _atom_site_occupancy
  Y  Y0  1  0.24989000  0.00007000  0.38679000  1
  Y  Y1  1  0.25011000  0.50007000  0.11321000  1
  Y  Y2  1  0.74989000  0.49993000  0.88679000  1
  Y  Y3  1  0.75011000  0.99993000  0.61321000  1
  H  H4  1  0.00810000  0.75030000  0.75120000  1
  H  H5  1  0.09770000  0.34280000  0.87790000  1
  H  H6  1  0.09790000  0.15680000  0.62280000  1
  H  H7  1  0.40210000  0.65680000  0.87720000  1
  H  H8  1  0.40230000  0.84280000  0.62210000  1
  H  H9  1  0.49190000  0.25030000  0.74880000  1
  H  H10  1  0.50810000  0.74970000  0.25120000  1
  H  H11  1  0.59770000  0.15720000  0.37790000  1
  H  H12  1  0.59790000  0.34320000  0.12280000  1
  H  H13  1  0.90210000  0.84320000  0.37720000  1
  H  H14  1  0.90230000  0.65720000  0.12210000  1
  H  H15  1  0.99190000  0.24970000  0.24880000  1
  C  C16  1  0.07350000  0.25330000  0.74960000  1
  C  C17  1  0.09800000  0.74100000  0.25580000  1
  C  C18  1  0.10610000  0.63630000  0.90790000  1
  C  C19  1  0.10610000  0.86580000  0.59140000  1
  C  C20  1  0.11340000  0.74960000  0.75100000  1
  C  C21  1  0.15020000  0.30620000  0.82680000  1
  C  C22  1  0.15090000  0.19520000  0.67300000  1
  C  C23  1  0.19120000  0.69590000  0.82670000  1
  C  C24  1  0.19240000  0.80320000  0.67380000  1
  C  C25  1  0.30760000  0.30320000  0.82620000  1
  C  C26  1  0.30880000  0.19590000  0.67330000  1
  C  C27  1  0.34910000  0.69520000  0.82700000  1
  C  C28  1  0.34980000  0.80620000  0.67320000  1
  C  C29  1  0.38660000  0.24960000  0.74900000  1
  C  C30  1  0.39390000  0.13630000  0.59210000  1
  C  C31  1  0.39390000  0.36580000  0.90860000  1
  C  C32  1  0.40200000  0.24100000  0.24420000  1
  C  C33  1  0.42650000  0.75330000  0.75040000  1
  C  C34  1  0.57350000  0.24670000  0.24960000  1
  C  C35  1  0.59800000  0.75900000  0.75580000  1
  C  C36  1  0.60610000  0.63420000  0.09140000  1
  C  C37  1  0.60610000  0.86370000  0.40790000  1
  C  C38  1  0.61340000  0.75040000  0.25100000  1
  C  C39  1  0.65020000  0.19380000  0.32680000  1
  C  C40  1  0.65090000  0.30480000  0.17300000  1
  C  C41  1  0.69120000  0.80410000  0.32670000  1
  C  C42  1  0.69240000  0.69680000  0.17380000  1
  C  C43  1  0.80760000  0.19680000  0.32620000  1
  C  C44  1  0.80880000  0.30410000  0.17330000  1
  C  C45  1  0.84910000  0.80480000  0.32700000  1
  C  C46  1  0.84980000  0.69380000  0.17320000  1
  C  C47  1  0.88660000  0.25040000  0.24900000  1
  C  C48  1  0.89390000  0.13420000  0.40860000  1
  C  C49  1  0.89390000  0.36370000  0.09210000  1
  C  C50  1  0.90200000  0.25900000  0.74420000  1
  C  C51  1  0.92650000  0.74670000  0.25040000  1
  O  O52  1  0.02730000  0.10120000  0.39350000  1
  O  O53  1  0.02730000  0.39750000  0.10630000  1
  O  O54  1  0.16450000  0.67480000  0.19220000  1
  O  O55  1  0.16570000  0.82550000  0.30820000  1
  O  O56  1  0.17400000  0.62200000  0.98610000  1
  O  O57  1  0.17400000  0.87790000  0.51430000  1
  O  O58  1  0.32600000  0.12200000  0.51390000  1
  O  O59  1  0.32600000  0.37790000  0.98570000  1
  O  O60  1  0.33430000  0.32550000  0.19180000  1
  O  O61  1  0.33550000  0.17480000  0.30780000  1
  O  O62  1  0.47270000  0.60120000  0.10650000  1
  O  O63  1  0.47270000  0.89750000  0.39370000  1
  O  O64  1  0.52730000  0.10250000  0.60630000  1
  O  O65  1  0.52730000  0.39880000  0.89350000  1
  O  O66  1  0.66450000  0.82520000  0.69220000  1
  O  O67  1  0.66570000  0.67450000  0.80820000  1
  O  O68  1  0.67400000  0.62210000  0.01430000  1
  O  O69  1  0.67400000  0.87800000  0.48610000  1
  O  O70  1  0.82600000  0.12210000  0.48570000  1
  O  O71  1  0.82600000  0.37800000  0.01390000  1
  O  O72  1  0.83430000  0.17450000  0.69180000  1
  O  O73  1  0.83550000  0.32520000  0.80780000  1
  O  O74  1  0.97270000  0.60250000  0.89370000  1
  O  O75  1  0.97270000  0.89880000  0.60650000  1
