# generated using pymatgen
data_Co4H25C38N9O14
_symmetry_space_group_name_H-M   'P 1'
_cell_length_a   12.17720000
_cell_length_b   15.53140000
_cell_length_c   15.82670000
_cell_angle_alpha   76.01900000
_cell_angle_beta   67.57000000
_cell_angle_gamma   69.19600000
_symmetry_Int_Tables_number   1
_chemical_formula_structural   Co4H25C38N9O14
_chemical_formula_sum   'Co8 H50 C76 N18 O28'
_cell_volume   2566.87334718
_cell_formula_units_Z   2
loop_
 _symmetry_equiv_pos_site_id
 _symmetry_equiv_pos_as_xyz
  1  'x, y, z'
loop_
 _atom_site_type_symbol
 _atom_site_label
 _atom_site_symmetry_multiplicity
 _atom_site_fract_x
 _atom_site_fract_y
 _atom_site_fract_z
 _atom_site_occupancy
  Co  Co0  1  0.04536000  0.03558000  0.21574000  1
  Co  Co1  1  0.04897000  0.63356000  0.26076000  1
  Co  Co2  1  0.23510000  0.67961000  0.03105000  1
  Co  Co3  1  0.43755000  0.66382000  0.81036000  1
  Co  Co4  1  0.56245000  0.33618000  0.18964000  1
  Co  Co5  1  0.76490000  0.32039000  0.96895000  1
  Co  Co6  1  0.95103000  0.36644000  0.73924000  1
  Co  Co7  1  0.95464000  0.96442000  0.78426000  1
  H  H8  1  0.01060000  0.15780000  0.68740000  1
  H  H9  1  0.01710000  0.85280000  0.96960000  1
  H  H10  1  0.03110000  0.65750000  0.80180000  1
  H  H11  1  0.03240000  0.32640000  0.04290000  1
  H  H12  1  0.06740000  0.54740000  0.54370000  1
  H  H13  1  0.06740000  0.55830000  0.68590000  1
  H  H14  1  0.07830000  0.24880000  0.19080000  1
  H  H15  1  0.09420000  0.83390000  0.54090000  1
  H  H16  1  0.12050000  0.02910000  0.67590000  1
  H  H17  1  0.16540000  0.18890000  0.31700000  1
  H  H18  1  0.16730000  0.20090000  0.45690000  1
  H  H19  1  0.18220000  0.89800000  0.06090000  1
  H  H20  1  0.19190000  0.47280000  0.80970000  1
  H  H21  1  0.19890000  0.77520000  0.40060000  1
  H  H22  1  0.23350000  0.83450000  0.72070000  1
  H  H23  1  0.25570000  0.46190000  0.04270000  1
  H  H24  1  0.25780000  0.43150000  0.29630000  1
  H  H25  1  0.27080000  0.02580000  0.44810000  1
  H  H26  1  0.29590000  0.85920000  0.21340000  1
  H  H27  1  0.35060000  0.16280000  0.14270000  1
  H  H28  1  0.35980000  0.97670000  0.30640000  1
  H  H29  1  0.36770000  0.08470000  0.91370000  1
  H  H30  1  0.36880000  0.76600000  0.25820000  1
  H  H31  1  0.41400000  0.76670000  0.10070000  1
  H  H32  1  0.47230000  0.52230000  0.07000000  1
  H  H33  1  0.52770000  0.47770000  0.93000000  1
  H  H34  1  0.58600000  0.23330000  0.89930000  1
  H  H35  1  0.63120000  0.23400000  0.74180000  1
  H  H36  1  0.63230000  0.91530000  0.08630000  1
  H  H37  1  0.64020000  0.02330000  0.69360000  1
  H  H38  1  0.64940000  0.83720000  0.85730000  1
  H  H39  1  0.70410000  0.14080000  0.78660000  1
  H  H40  1  0.72920000  0.97420000  0.55190000  1
  H  H41  1  0.74220000  0.56850000  0.70370000  1
  H  H42  1  0.74430000  0.53810000  0.95730000  1
  H  H43  1  0.76650000  0.16550000  0.27930000  1
  H  H44  1  0.80110000  0.22480000  0.59940000  1
  H  H45  1  0.80810000  0.52720000  0.19030000  1
  H  H46  1  0.81780000  0.10200000  0.93910000  1
  H  H47  1  0.83270000  0.79910000  0.54310000  1
  H  H48  1  0.83460000  0.81110000  0.68300000  1
  H  H49  1  0.87950000  0.97090000  0.32410000  1
  H  H50  1  0.90580000  0.16610000  0.45910000  1
  H  H51  1  0.92170000  0.75120000  0.80920000  1
  H  H52  1  0.93260000  0.44170000  0.31410000  1
  H  H53  1  0.93260000  0.45260000  0.45630000  1
  H  H54  1  0.96760000  0.67360000  0.95710000  1
  H  H55  1  0.96890000  0.34250000  0.19820000  1
  H  H56  1  0.98290000  0.14720000  0.03040000  1
  H  H57  1  0.98940000  0.84220000  0.31260000  1
  C  C58  1  0.01980000  0.60100000  0.57180000  1
  C  C59  1  0.02000000  0.60830000  0.65650000  1
  C  C60  1  0.03290000  0.37350000  0.87130000  1
  C  C61  1  0.03880000  0.83630000  0.25150000  1
  C  C62  1  0.04660000  0.31370000  0.30090000  1
  C  C63  1  0.05030000  0.31200000  0.20490000  1
  C  C64  1  0.05070000  0.32700000  0.47000000  1
  C  C65  1  0.05090000  0.33220000  0.56530000  1
  C  C66  1  0.08490000  0.36340000  0.01160000  1
  C  C67  1  0.08560000  0.83470000  0.91810000  1
  C  C68  1  0.10370000  0.39480000  0.91920000  1
  C  C69  1  0.11510000  0.96940000  0.60190000  1
  C  C70  1  0.11740000  0.24280000  0.34440000  1
  C  C71  1  0.11840000  0.25020000  0.42800000  1
  C  C72  1  0.14330000  0.86620000  0.11560000  1
  C  C73  1  0.14430000  0.38710000  0.05690000  1
  C  C74  1  0.15020000  0.86170000  0.49440000  1
  C  C75  1  0.17220000  0.93720000  0.50930000  1
  C  C76  1  0.17910000  0.45230000  0.87200000  1
  C  C77  1  0.20140000  0.82520000  0.78470000  1
  C  C78  1  0.21220000  0.82720000  0.40980000  1
  C  C79  1  0.21730000  0.44500000  0.01110000  1
  C  C80  1  0.23510000  0.47870000  0.91950000  1
  C  C81  1  0.23830000  0.07890000  0.08810000  1
  C  C82  1  0.25310000  0.97610000  0.43860000  1
  C  C83  1  0.28740000  0.46750000  0.24150000  1
  C  C84  1  0.29180000  0.86860000  0.34030000  1
  C  C85  1  0.30820000  0.54620000  0.87360000  1
  C  C86  1  0.30950000  0.94550000  0.35430000  1
  C  C87  1  0.34270000  0.11850000  0.03490000  1
  C  C88  1  0.35250000  0.83280000  0.24890000  1
  C  C89  1  0.38390000  0.16250000  0.07920000  1
  C  C90  1  0.39540000  0.11460000  0.94240000  1
  C  C91  1  0.40210000  0.51670000  0.11980000  1
  C  C92  1  0.47360000  0.79720000  0.06620000  1
  C  C93  1  0.47450000  0.20520000  0.02770000  1
  C  C94  1  0.47840000  0.74410000  0.93150000  1
  C  C95  1  0.48930000  0.15440000  0.89080000  1
  C  C96  1  0.51070000  0.84560000  0.10920000  1
  C  C97  1  0.52160000  0.25590000  0.06850000  1
  C  C98  1  0.52550000  0.79480000  0.97230000  1
  C  C99  1  0.52640000  0.20280000  0.93380000  1
  C  C100  1  0.59790000  0.48330000  0.88020000  1
  C  C101  1  0.60460000  0.88540000  0.05760000  1
  C  C102  1  0.61610000  0.83750000  0.92080000  1
  C  C103  1  0.64750000  0.16720000  0.75110000  1
  C  C104  1  0.65730000  0.88150000  0.96510000  1
  C  C105  1  0.69050000  0.05450000  0.64570000  1
  C  C106  1  0.69180000  0.45380000  0.12640000  1
  C  C107  1  0.70820000  0.13140000  0.65970000  1
  C  C108  1  0.71260000  0.53250000  0.75850000  1
  C  C109  1  0.74690000  0.02390000  0.56140000  1
  C  C110  1  0.76170000  0.92110000  0.91190000  1
  C  C111  1  0.76490000  0.52130000  0.08050000  1
  C  C112  1  0.78270000  0.55500000  0.98890000  1
  C  C113  1  0.78780000  0.17280000  0.59020000  1
  C  C114  1  0.79860000  0.17480000  0.21530000  1
  C  C115  1  0.82090000  0.54770000  0.12800000  1
  C  C116  1  0.82780000  0.06280000  0.49070000  1
  C  C117  1  0.84980000  0.13830000  0.50560000  1
  C  C118  1  0.85570000  0.61290000  0.94310000  1
  C  C119  1  0.85670000  0.13380000  0.88440000  1
  C  C120  1  0.88160000  0.74980000  0.57200000  1
  C  C121  1  0.88260000  0.75720000  0.65560000  1
  C  C122  1  0.88490000  0.03060000  0.39810000  1
  C  C123  1  0.89630000  0.60520000  0.08080000  1
  C  C124  1  0.91440000  0.16530000  0.08190000  1
  C  C125  1  0.91510000  0.63660000  0.98840000  1
  C  C126  1  0.94910000  0.66780000  0.43470000  1
  C  C127  1  0.94930000  0.67300000  0.53000000  1
  C  C128  1  0.94970000  0.68800000  0.79510000  1
  C  C129  1  0.95340000  0.68630000  0.69910000  1
  C  C130  1  0.96120000  0.16370000  0.74850000  1
  C  C131  1  0.96710000  0.62650000  0.12870000  1
  C  C132  1  0.98000000  0.39170000  0.34350000  1
  C  C133  1  0.98020000  0.39900000  0.42820000  1
  N  N134  1  0.07730000  0.75910000  0.21390000  1
  N  N135  1  0.07780000  0.90440000  0.19310000  1
  N  N136  1  0.08780000  0.87120000  0.83130000  1
  N  N137  1  0.14760000  0.77910000  0.12380000  1
  N  N138  1  0.18610000  0.77330000  0.92320000  1
  N  N139  1  0.21650000  0.54230000  0.20940000  1
  N  N140  1  0.26440000  0.76630000  0.83460000  1
  N  N141  1  0.29320000  0.57450000  0.12850000  1
  N  N142  1  0.40440000  0.44770000  0.18940000  1
  N  N143  1  0.59560000  0.55230000  0.81060000  1
  N  N144  1  0.70680000  0.42550000  0.87150000  1
  N  N145  1  0.73560000  0.23370000  0.16540000  1
  N  N146  1  0.78350000  0.45770000  0.79060000  1
  N  N147  1  0.81390000  0.22670000  0.07680000  1
  N  N148  1  0.85240000  0.22090000  0.87620000  1
  N  N149  1  0.91220000  0.12880000  0.16870000  1
  N  N150  1  0.92220000  0.09560000  0.80690000  1
  N  N151  1  0.92270000  0.24090000  0.78610000  1
  O  O152  1  0.02220000  0.94510000  0.65420000  1
  O  O153  1  0.04180000  0.60710000  0.38910000  1
  O  O154  1  0.06130000  0.65140000  0.08060000  1
  O  O155  1  0.07020000  0.38410000  0.78430000  1
  O  O156  1  0.13200000  0.27890000  0.59470000  1
  O  O157  1  0.13660000  0.36130000  0.14640000  1
  O  O158  1  0.16120000  0.01630000  0.62330000  1
  O  O159  1  0.19030000  0.05040000  0.04690000  1
  O  O160  1  0.19600000  0.07750000  0.17500000  1
  O  O161  1  0.32920000  0.58550000  0.92470000  1
  O  O162  1  0.34830000  0.56280000  0.78870000  1
  O  O163  1  0.40990000  0.69670000  0.98470000  1
  O  O164  1  0.46160000  0.85400000  0.20000000  1
  O  O165  1  0.49160000  0.24870000  0.15520000  1
  O  O166  1  0.50840000  0.75130000  0.84480000  1
  O  O167  1  0.53840000  0.14600000  0.80000000  1
  O  O168  1  0.59010000  0.30330000  0.01530000  1
  O  O169  1  0.65170000  0.43720000  0.21130000  1
  O  O170  1  0.67080000  0.41450000  0.07530000  1
  O  O171  1  0.80400000  0.92250000  0.82500000  1
  O  O172  1  0.80970000  0.94960000  0.95310000  1
  O  O173  1  0.83880000  0.98370000  0.37670000  1
  O  O174  1  0.86340000  0.63870000  0.85360000  1
  O  O175  1  0.86800000  0.72110000  0.40530000  1
  O  O176  1  0.92980000  0.61590000  0.21570000  1
  O  O177  1  0.93870000  0.34860000  0.91940000  1
  O  O178  1  0.95820000  0.39290000  0.61090000  1
  O  O179  1  0.97780000  0.05490000  0.34580000  1
