# generated using pymatgen
data_CdH14C24S(NO)4
_symmetry_space_group_name_H-M   'P 1'
_cell_length_a   16.08500000
_cell_length_b   16.08490000
_cell_length_c   20.24600000
_cell_angle_alpha   90.00000000
_cell_angle_beta   90.00000000
_cell_angle_gamma   90.00000000
_symmetry_Int_Tables_number   1
_chemical_formula_structural   CdH14C24S(NO)4
_chemical_formula_sum   'Cd8 H112 C192 S8 N32 O32'
_cell_volume   5238.15883166
_cell_formula_units_Z   8
loop_
 _symmetry_equiv_pos_site_id
 _symmetry_equiv_pos_as_xyz
  1  'x, y, z'
loop_
 _atom_site_type_symbol
 _atom_site_label
 _atom_site_symmetry_multiplicity
 _atom_site_fract_x
 _atom_site_fract_y
 _atom_site_fract_z
 _atom_site_occupancy
  Cd  Cd0  1  0.08708000  0.38347000  0.67907000  1
  Cd  Cd1  1  0.08708000  0.61653000  0.17907000  1
  Cd  Cd2  1  0.41292000  0.38347000  0.17907000  1
  Cd  Cd3  1  0.41292000  0.61653000  0.67907000  1
  Cd  Cd4  1  0.58708000  0.38347000  0.32093000  1
  Cd  Cd5  1  0.58708000  0.61653000  0.82093000  1
  Cd  Cd6  1  0.91292000  0.38347000  0.82093000  1
  Cd  Cd7  1  0.91292000  0.61653000  0.32093000  1
  H  H8  1  0.02270000  0.18730000  0.10370000  1
  H  H9  1  0.02270000  0.81270000  0.60370000  1
  H  H10  1  0.02560000  0.04400000  0.10400000  1
  H  H11  1  0.02560000  0.95600000  0.60400000  1
  H  H12  1  0.02680000  0.22280000  0.85560000  1
  H  H13  1  0.02680000  0.77720000  0.35560000  1
  H  H14  1  0.02900000  0.08060000  0.85530000  1
  H  H15  1  0.02900000  0.91940000  0.35530000  1
  H  H16  1  0.03190000  0.45600000  0.35910000  1
  H  H17  1  0.03190000  0.54400000  0.85910000  1
  H  H18  1  0.03310000  0.31390000  0.35700000  1
  H  H19  1  0.03310000  0.68610000  0.85700000  1
  H  H20  1  0.08400000  0.39380000  0.94930000  1
  H  H21  1  0.08400000  0.60620000  0.44930000  1
  H  H22  1  0.13050000  0.37340000  0.43880000  1
  H  H23  1  0.13050000  0.62660000  0.93880000  1
  H  H24  1  0.16240000  0.39420000  0.04550000  1
  H  H25  1  0.16240000  0.60580000  0.54550000  1
  H  H26  1  0.18660000  0.46250000  0.22290000  1
  H  H27  1  0.18660000  0.53750000  0.72290000  1
  H  H28  1  0.18970000  0.22700000  0.72850000  1
  H  H29  1  0.18970000  0.77300000  0.22850000  1
  H  H30  1  0.19200000  0.32060000  0.22770000  1
  H  H31  1  0.19200000  0.67940000  0.72770000  1
  H  H32  1  0.19470000  0.08480000  0.73160000  1
  H  H33  1  0.19470000  0.91520000  0.23160000  1
  H  H34  1  0.20760000  0.37560000  0.34290000  1
  H  H35  1  0.20760000  0.62440000  0.84290000  1
  H  H36  1  0.29240000  0.37560000  0.84290000  1
  H  H37  1  0.29240000  0.62440000  0.34290000  1
  H  H38  1  0.30530000  0.08480000  0.23160000  1
  H  H39  1  0.30530000  0.91520000  0.73160000  1
  H  H40  1  0.30800000  0.32060000  0.72770000  1
  H  H41  1  0.30800000  0.67940000  0.22770000  1
  H  H42  1  0.31030000  0.22700000  0.22850000  1
  H  H43  1  0.31030000  0.77300000  0.72850000  1
  H  H44  1  0.31340000  0.46250000  0.72290000  1
  H  H45  1  0.31340000  0.53750000  0.22290000  1
  H  H46  1  0.33760000  0.39420000  0.54550000  1
  H  H47  1  0.33760000  0.60580000  0.04550000  1
  H  H48  1  0.36950000  0.37340000  0.93880000  1
  H  H49  1  0.36950000  0.62660000  0.43880000  1
  H  H50  1  0.41600000  0.39380000  0.44930000  1
  H  H51  1  0.41600000  0.60620000  0.94930000  1
  H  H52  1  0.46690000  0.31390000  0.85700000  1
  H  H53  1  0.46690000  0.68610000  0.35700000  1
  H  H54  1  0.46810000  0.45600000  0.85910000  1
  H  H55  1  0.46810000  0.54400000  0.35910000  1
  H  H56  1  0.47100000  0.08060000  0.35530000  1
  H  H57  1  0.47100000  0.91940000  0.85530000  1
  H  H58  1  0.47320000  0.22280000  0.35560000  1
  H  H59  1  0.47320000  0.77720000  0.85560000  1
  H  H60  1  0.47440000  0.04400000  0.60400000  1
  H  H61  1  0.47440000  0.95600000  0.10400000  1
  H  H62  1  0.47730000  0.18730000  0.60370000  1
  H  H63  1  0.47730000  0.81270000  0.10370000  1
  H  H64  1  0.52270000  0.18730000  0.89630000  1
  H  H65  1  0.52270000  0.81270000  0.39630000  1
  H  H66  1  0.52560000  0.04400000  0.89600000  1
  H  H67  1  0.52560000  0.95600000  0.39600000  1
  H  H68  1  0.52680000  0.22280000  0.14440000  1
  H  H69  1  0.52680000  0.77720000  0.64440000  1
  H  H70  1  0.52900000  0.08060000  0.14470000  1
  H  H71  1  0.52900000  0.91940000  0.64470000  1
  H  H72  1  0.53190000  0.45600000  0.64090000  1
  H  H73  1  0.53190000  0.54400000  0.14090000  1
  H  H74  1  0.53310000  0.31390000  0.64300000  1
  H  H75  1  0.53310000  0.68610000  0.14300000  1
  H  H76  1  0.58400000  0.39380000  0.05070000  1
  H  H77  1  0.58400000  0.60620000  0.55070000  1
  H  H78  1  0.63050000  0.37340000  0.56120000  1
  H  H79  1  0.63050000  0.62660000  0.06120000  1
  H  H80  1  0.66240000  0.39420000  0.95450000  1
  H  H81  1  0.66240000  0.60580000  0.45450000  1
  H  H82  1  0.68660000  0.46250000  0.77710000  1
  H  H83  1  0.68660000  0.53750000  0.27710000  1
  H  H84  1  0.68970000  0.22700000  0.27150000  1
  H  H85  1  0.68970000  0.77300000  0.77150000  1
  H  H86  1  0.69200000  0.32060000  0.77230000  1
  H  H87  1  0.69200000  0.67940000  0.27230000  1
  H  H88  1  0.69470000  0.08480000  0.26840000  1
  H  H89  1  0.69470000  0.91520000  0.76840000  1
  H  H90  1  0.70760000  0.37560000  0.65710000  1
  H  H91  1  0.70760000  0.62440000  0.15710000  1
  H  H92  1  0.79240000  0.37560000  0.15710000  1
  H  H93  1  0.79240000  0.62440000  0.65710000  1
  H  H94  1  0.80530000  0.08480000  0.76840000  1
  H  H95  1  0.80530000  0.91520000  0.26840000  1
  H  H96  1  0.80800000  0.32060000  0.27230000  1
  H  H97  1  0.80800000  0.67940000  0.77230000  1
  H  H98  1  0.81030000  0.22700000  0.77150000  1
  H  H99  1  0.81030000  0.77300000  0.27150000  1
  H  H100  1  0.81340000  0.46250000  0.27710000  1
  H  H101  1  0.81340000  0.53750000  0.77710000  1
  H  H102  1  0.83760000  0.39420000  0.45450000  1
  H  H103  1  0.83760000  0.60580000  0.95450000  1
  H  H104  1  0.86950000  0.37340000  0.06120000  1
  H  H105  1  0.86950000  0.62660000  0.56120000  1
  H  H106  1  0.91600000  0.39380000  0.55070000  1
  H  H107  1  0.91600000  0.60620000  0.05070000  1
  H  H108  1  0.96690000  0.31390000  0.14300000  1
  H  H109  1  0.96690000  0.68610000  0.64300000  1
  H  H110  1  0.96810000  0.45600000  0.14090000  1
  H  H111  1  0.96810000  0.54400000  0.64090000  1
  H  H112  1  0.97100000  0.08060000  0.64470000  1
  H  H113  1  0.97100000  0.91940000  0.14470000  1
  H  H114  1  0.97320000  0.22280000  0.64440000  1
  H  H115  1  0.97320000  0.77720000  0.14440000  1
  H  H116  1  0.97440000  0.04400000  0.39600000  1
  H  H117  1  0.97440000  0.95600000  0.89600000  1
  H  H118  1  0.97730000  0.18730000  0.39630000  1
  H  H119  1  0.97730000  0.81270000  0.89630000  1
  C  C120  1  0.01240000  0.34279000  0.15974000  1
  C  C121  1  0.01240000  0.65721000  0.65974000  1
  C  C122  1  0.01365000  0.42830000  0.15864000  1
  C  C123  1  0.01365000  0.57170000  0.65864000  1
  C  C124  1  0.01640000  0.10884000  0.66237000  1
  C  C125  1  0.01640000  0.89116000  0.16237000  1
  C  C126  1  0.01830000  0.19449000  0.66225000  1
  C  C127  1  0.01830000  0.80551000  0.16225000  1
  C  C128  1  0.04760000  0.16040000  0.13917000  1
  C  C129  1  0.04760000  0.83960000  0.63917000  1
  C  C130  1  0.04880000  0.07222000  0.13961000  1
  C  C131  1  0.04880000  0.92778000  0.63961000  1
  C  C132  1  0.08014000  0.29966000  0.18625000  1
  C  C133  1  0.08014000  0.70034000  0.68625000  1
  C  C134  1  0.08115000  0.20758000  0.18834000  1
  C  C135  1  0.08115000  0.79242000  0.68834000  1
  C  C136  1  0.08256000  0.02678000  0.19011000  1
  C  C137  1  0.08256000  0.97322000  0.69011000  1
  C  C138  1  0.08313000  0.06481000  0.68921000  1
  C  C139  1  0.08313000  0.93519000  0.18921000  1
  C  C140  1  0.11648000  0.16282000  0.24242000  1
  C  C141  1  0.11648000  0.83718000  0.74242000  1
  C  C142  1  0.11693000  0.07368000  0.24345000  1
  C  C143  1  0.11693000  0.92632000  0.74345000  1
  C  C144  1  0.13055000  0.38293000  0.82297000  1
  C  C145  1  0.13055000  0.61707000  0.32297000  1
  C  C146  1  0.14160000  0.38940000  0.94692000  1
  C  C147  1  0.14160000  0.61060000  0.44692000  1
  C  C148  1  0.14181000  0.43217000  0.20680000  1
  C  C149  1  0.14181000  0.56783000  0.70680000  1
  C  C150  1  0.14510000  0.19699000  0.71150000  1
  C  C151  1  0.14510000  0.80301000  0.21150000  1
  C  C152  1  0.14557000  0.34658000  0.20984000  1
  C  C153  1  0.14557000  0.65342000  0.70984000  1
  C  C154  1  0.14850000  0.11125000  0.71370000  1
  C  C155  1  0.14850000  0.88875000  0.21370000  1
  C  C156  1  0.17440000  0.38051000  0.56420000  1
  C  C157  1  0.17440000  0.61949000  0.06420000  1
  C  C158  1  0.18001000  0.38316000  0.88638000  1
  C  C159  1  0.18001000  0.61684000  0.38638000  1
  C  C160  1  0.18810000  0.37720000  0.44123000  1
  C  C161  1  0.18810000  0.62280000  0.94123000  1
  C  C162  1  0.18870000  0.38930000  0.00485000  1
  C  C163  1  0.18870000  0.61070000  0.50485000  1
  C  C164  1  0.22597000  0.38183000  0.50213000  1
  C  C165  1  0.22597000  0.61817000  0.00213000  1
  C  C166  1  0.23420000  0.37830000  0.38363000  1
  C  C167  1  0.23420000  0.62170000  0.88363000  1
  C  C168  1  0.26580000  0.37830000  0.88363000  1
  C  C169  1  0.26580000  0.62170000  0.38363000  1
  C  C170  1  0.27403000  0.38183000  0.00213000  1
  C  C171  1  0.27403000  0.61817000  0.50213000  1
  C  C172  1  0.31130000  0.38930000  0.50485000  1
  C  C173  1  0.31130000  0.61070000  0.00485000  1
  C  C174  1  0.31190000  0.37720000  0.94123000  1
  C  C175  1  0.31190000  0.62280000  0.44123000  1
  C  C176  1  0.31999000  0.38316000  0.38638000  1
  C  C177  1  0.31999000  0.61684000  0.88638000  1
  C  C178  1  0.32560000  0.38051000  0.06420000  1
  C  C179  1  0.32560000  0.61949000  0.56420000  1
  C  C180  1  0.35150000  0.11125000  0.21370000  1
  C  C181  1  0.35150000  0.88875000  0.71370000  1
  C  C182  1  0.35443000  0.34658000  0.70984000  1
  C  C183  1  0.35443000  0.65342000  0.20984000  1
  C  C184  1  0.35490000  0.19699000  0.21150000  1
  C  C185  1  0.35490000  0.80301000  0.71150000  1
  C  C186  1  0.35819000  0.43217000  0.70680000  1
  C  C187  1  0.35819000  0.56783000  0.20680000  1
  C  C188  1  0.35840000  0.38940000  0.44692000  1
  C  C189  1  0.35840000  0.61060000  0.94692000  1
  C  C190  1  0.36945000  0.38293000  0.32297000  1
  C  C191  1  0.36945000  0.61707000  0.82297000  1
  C  C192  1  0.38307000  0.07368000  0.74345000  1
  C  C193  1  0.38307000  0.92632000  0.24345000  1
  C  C194  1  0.38352000  0.16282000  0.74242000  1
  C  C195  1  0.38352000  0.83718000  0.24242000  1
  C  C196  1  0.41687000  0.06481000  0.18921000  1
  C  C197  1  0.41687000  0.93519000  0.68921000  1
  C  C198  1  0.41744000  0.02678000  0.69011000  1
  C  C199  1  0.41744000  0.97322000  0.19011000  1
  C  C200  1  0.41885000  0.20758000  0.68834000  1
  C  C201  1  0.41885000  0.79242000  0.18834000  1
  C  C202  1  0.41986000  0.29966000  0.68625000  1
  C  C203  1  0.41986000  0.70034000  0.18625000  1
  C  C204  1  0.45120000  0.07222000  0.63961000  1
  C  C205  1  0.45120000  0.92778000  0.13961000  1
  C  C206  1  0.45240000  0.16040000  0.63917000  1
  C  C207  1  0.45240000  0.83960000  0.13917000  1
  C  C208  1  0.48170000  0.19449000  0.16225000  1
  C  C209  1  0.48170000  0.80551000  0.66225000  1
  C  C210  1  0.48360000  0.10884000  0.16237000  1
  C  C211  1  0.48360000  0.89116000  0.66237000  1
  C  C212  1  0.48635000  0.42830000  0.65864000  1
  C  C213  1  0.48635000  0.57170000  0.15864000  1
  C  C214  1  0.48760000  0.34279000  0.65974000  1
  C  C215  1  0.48760000  0.65721000  0.15974000  1
  C  C216  1  0.51240000  0.34279000  0.84026000  1
  C  C217  1  0.51240000  0.65721000  0.34026000  1
  C  C218  1  0.51365000  0.42830000  0.84136000  1
  C  C219  1  0.51365000  0.57170000  0.34136000  1
  C  C220  1  0.51640000  0.10884000  0.33763000  1
  C  C221  1  0.51640000  0.89116000  0.83763000  1
  C  C222  1  0.51830000  0.19449000  0.33775000  1
  C  C223  1  0.51830000  0.80551000  0.83775000  1
  C  C224  1  0.54760000  0.16040000  0.86083000  1
  C  C225  1  0.54760000  0.83960000  0.36083000  1
  C  C226  1  0.54880000  0.07222000  0.86039000  1
  C  C227  1  0.54880000  0.92778000  0.36039000  1
  C  C228  1  0.58014000  0.29966000  0.81375000  1
  C  C229  1  0.58014000  0.70034000  0.31375000  1
  C  C230  1  0.58115000  0.20758000  0.81166000  1
  C  C231  1  0.58115000  0.79242000  0.31166000  1
  C  C232  1  0.58256000  0.02678000  0.80989000  1
  C  C233  1  0.58256000  0.97322000  0.30989000  1
  C  C234  1  0.58313000  0.06481000  0.31079000  1
  C  C235  1  0.58313000  0.93519000  0.81079000  1
  C  C236  1  0.61648000  0.16282000  0.75758000  1
  C  C237  1  0.61648000  0.83718000  0.25758000  1
  C  C238  1  0.61693000  0.07368000  0.75655000  1
  C  C239  1  0.61693000  0.92632000  0.25655000  1
  C  C240  1  0.63055000  0.38293000  0.17703000  1
  C  C241  1  0.63055000  0.61707000  0.67703000  1
  C  C242  1  0.64160000  0.38940000  0.05308000  1
  C  C243  1  0.64160000  0.61060000  0.55308000  1
  C  C244  1  0.64181000  0.43217000  0.79320000  1
  C  C245  1  0.64181000  0.56783000  0.29320000  1
  C  C246  1  0.64510000  0.19699000  0.28850000  1
  C  C247  1  0.64510000  0.80301000  0.78850000  1
  C  C248  1  0.64557000  0.34658000  0.79016000  1
  C  C249  1  0.64557000  0.65342000  0.29016000  1
  C  C250  1  0.64850000  0.11125000  0.28630000  1
  C  C251  1  0.64850000  0.88875000  0.78630000  1
  C  C252  1  0.67440000  0.38051000  0.43580000  1
  C  C253  1  0.67440000  0.61949000  0.93580000  1
  C  C254  1  0.68001000  0.38316000  0.11362000  1
  C  C255  1  0.68001000  0.61684000  0.61362000  1
  C  C256  1  0.68810000  0.37720000  0.55877000  1
  C  C257  1  0.68810000  0.62280000  0.05877000  1
  C  C258  1  0.68870000  0.38930000  0.99515000  1
  C  C259  1  0.68870000  0.61070000  0.49515000  1
  C  C260  1  0.72597000  0.38183000  0.49787000  1
  C  C261  1  0.72597000  0.61817000  0.99787000  1
  C  C262  1  0.73420000  0.37830000  0.61637000  1
  C  C263  1  0.73420000  0.62170000  0.11637000  1
  C  C264  1  0.76580000  0.37830000  0.11637000  1
  C  C265  1  0.76580000  0.62170000  0.61637000  1
  C  C266  1  0.77403000  0.38183000  0.99787000  1
  C  C267  1  0.77403000  0.61817000  0.49787000  1
  C  C268  1  0.81130000  0.38930000  0.49515000  1
  C  C269  1  0.81130000  0.61070000  0.99515000  1
  C  C270  1  0.81190000  0.37720000  0.05877000  1
  C  C271  1  0.81190000  0.62280000  0.55877000  1
  C  C272  1  0.81999000  0.38316000  0.61362000  1
  C  C273  1  0.81999000  0.61684000  0.11362000  1
  C  C274  1  0.82560000  0.38051000  0.93580000  1
  C  C275  1  0.82560000  0.61949000  0.43580000  1
  C  C276  1  0.85150000  0.11125000  0.78630000  1
  C  C277  1  0.85150000  0.88875000  0.28630000  1
  C  C278  1  0.85443000  0.34658000  0.29016000  1
  C  C279  1  0.85443000  0.65342000  0.79016000  1
  C  C280  1  0.85490000  0.19699000  0.78850000  1
  C  C281  1  0.85490000  0.80301000  0.28850000  1
  C  C282  1  0.85819000  0.43217000  0.29320000  1
  C  C283  1  0.85819000  0.56783000  0.79320000  1
  C  C284  1  0.85840000  0.38940000  0.55308000  1
  C  C285  1  0.85840000  0.61060000  0.05308000  1
  C  C286  1  0.86945000  0.38293000  0.67703000  1
  C  C287  1  0.86945000  0.61707000  0.17703000  1
  C  C288  1  0.88307000  0.07368000  0.25655000  1
  C  C289  1  0.88307000  0.92632000  0.75655000  1
  C  C290  1  0.88352000  0.16282000  0.25758000  1
  C  C291  1  0.88352000  0.83718000  0.75758000  1
  C  C292  1  0.91687000  0.06481000  0.81079000  1
  C  C293  1  0.91687000  0.93519000  0.31079000  1
  C  C294  1  0.91744000  0.02678000  0.30989000  1
  C  C295  1  0.91744000  0.97322000  0.80989000  1
  C  C296  1  0.91885000  0.20758000  0.31166000  1
  C  C297  1  0.91885000  0.79242000  0.81166000  1
  C  C298  1  0.91986000  0.29966000  0.31375000  1
  C  C299  1  0.91986000  0.70034000  0.81375000  1
  C  C300  1  0.95120000  0.07222000  0.36039000  1
  C  C301  1  0.95120000  0.92778000  0.86039000  1
  C  C302  1  0.95240000  0.16040000  0.36083000  1
  C  C303  1  0.95240000  0.83960000  0.86083000  1
  C  C304  1  0.98170000  0.19449000  0.83775000  1
  C  C305  1  0.98170000  0.80551000  0.33775000  1
  C  C306  1  0.98360000  0.10884000  0.83763000  1
  C  C307  1  0.98360000  0.89116000  0.33763000  1
  C  C308  1  0.98635000  0.42830000  0.34136000  1
  C  C309  1  0.98635000  0.57170000  0.84136000  1
  C  C310  1  0.98760000  0.34279000  0.34026000  1
  C  C311  1  0.98760000  0.65721000  0.84026000  1
  S  S312  1  0.17566000  0.12013000  0.34450000  1
  S  S313  1  0.17566000  0.87987000  0.84450000  1
  S  S314  1  0.32434000  0.12013000  0.84450000  1
  S  S315  1  0.32434000  0.87987000  0.34450000  1
  S  S316  1  0.67566000  0.12013000  0.65550000  1
  S  S317  1  0.67566000  0.87987000  0.15550000  1
  S  S318  1  0.82434000  0.12013000  0.15550000  1
  S  S319  1  0.82434000  0.87987000  0.65550000  1
  N  N320  1  0.07698000  0.47368000  0.18184000  1
  N  N321  1  0.07698000  0.52632000  0.68184000  1
  N  N322  1  0.08109000  0.23877000  0.68620000  1
  N  N323  1  0.08109000  0.76123000  0.18620000  1
  N  N324  1  0.14887000  0.19663000  0.29782000  1
  N  N325  1  0.14887000  0.80337000  0.79782000  1
  N  N326  1  0.14927000  0.04170000  0.29948000  1
  N  N327  1  0.14927000  0.95830000  0.79948000  1
  N  N328  1  0.35073000  0.04170000  0.79948000  1
  N  N329  1  0.35073000  0.95830000  0.29948000  1
  N  N330  1  0.35113000  0.19663000  0.79782000  1
  N  N331  1  0.35113000  0.80337000  0.29782000  1
  N  N332  1  0.41891000  0.23877000  0.18620000  1
  N  N333  1  0.41891000  0.76123000  0.68620000  1
  N  N334  1  0.42302000  0.47368000  0.68184000  1
  N  N335  1  0.42302000  0.52632000  0.18184000  1
  N  N336  1  0.57698000  0.47368000  0.81816000  1
  N  N337  1  0.57698000  0.52632000  0.31816000  1
  N  N338  1  0.58109000  0.23877000  0.31380000  1
  N  N339  1  0.58109000  0.76123000  0.81380000  1
  N  N340  1  0.64887000  0.19663000  0.70218000  1
  N  N341  1  0.64887000  0.80337000  0.20218000  1
  N  N342  1  0.64927000  0.04170000  0.70052000  1
  N  N343  1  0.64927000  0.95830000  0.20052000  1
  N  N344  1  0.85073000  0.04170000  0.20052000  1
  N  N345  1  0.85073000  0.95830000  0.70052000  1
  N  N346  1  0.85113000  0.19663000  0.20218000  1
  N  N347  1  0.85113000  0.80337000  0.70218000  1
  N  N348  1  0.91891000  0.23877000  0.81380000  1
  N  N349  1  0.91891000  0.76123000  0.31380000  1
  N  N350  1  0.92302000  0.47368000  0.31816000  1
  N  N351  1  0.92302000  0.52632000  0.81816000  1
  O  O352  1  0.05371000  0.38150000  0.82641000  1
  O  O353  1  0.05371000  0.61850000  0.32641000  1
  O  O354  1  0.09780000  0.37410000  0.56024000  1
  O  O355  1  0.09780000  0.62590000  0.06024000  1
  O  O356  1  0.17034000  0.38395000  0.76977000  1
  O  O357  1  0.17034000  0.61605000  0.26977000  1
  O  O358  1  0.20976000  0.38590000  0.61789000  1
  O  O359  1  0.20976000  0.61410000  0.11789000  1
  O  O360  1  0.29024000  0.38590000  0.11789000  1
  O  O361  1  0.29024000  0.61410000  0.61789000  1
  O  O362  1  0.32966000  0.38395000  0.26977000  1
  O  O363  1  0.32966000  0.61605000  0.76977000  1
  O  O364  1  0.40220000  0.37410000  0.06024000  1
  O  O365  1  0.40220000  0.62590000  0.56024000  1
  O  O366  1  0.44629000  0.38150000  0.32641000  1
  O  O367  1  0.44629000  0.61850000  0.82641000  1
  O  O368  1  0.55371000  0.38150000  0.17359000  1
  O  O369  1  0.55371000  0.61850000  0.67359000  1
  O  O370  1  0.59780000  0.37410000  0.43976000  1
  O  O371  1  0.59780000  0.62590000  0.93976000  1
  O  O372  1  0.67034000  0.38395000  0.23023000  1
  O  O373  1  0.67034000  0.61605000  0.73023000  1
  O  O374  1  0.70976000  0.38590000  0.38211000  1
  O  O375  1  0.70976000  0.61410000  0.88211000  1
  O  O376  1  0.79024000  0.38590000  0.88211000  1
  O  O377  1  0.79024000  0.61410000  0.38211000  1
  O  O378  1  0.82966000  0.38395000  0.73023000  1
  O  O379  1  0.82966000  0.61605000  0.23023000  1
  O  O380  1  0.90220000  0.37410000  0.93976000  1
  O  O381  1  0.90220000  0.62590000  0.43976000  1
  O  O382  1  0.94629000  0.38150000  0.67359000  1
  O  O383  1  0.94629000  0.61850000  0.17359000  1
