# generated using pymatgen
data_AgH13C22N3O
_symmetry_space_group_name_H-M   'P 1'
_cell_length_a   10.23000000
_cell_length_b   11.83900000
_cell_length_c   26.07100000
_cell_angle_alpha   90.00000000
_cell_angle_beta   90.58900000
_cell_angle_gamma   90.00000000
_symmetry_Int_Tables_number   1
_chemical_formula_structural   AgH13C22N3O
_chemical_formula_sum   'Ag4 H52 C88 N12 O4'
_cell_volume   3157.36940100
_cell_formula_units_Z   4
loop_
 _symmetry_equiv_pos_site_id
 _symmetry_equiv_pos_as_xyz
  1  'x, y, z'
loop_
 _atom_site_type_symbol
 _atom_site_label
 _atom_site_symmetry_multiplicity
 _atom_site_fract_x
 _atom_site_fract_y
 _atom_site_fract_z
 _atom_site_occupancy
  Ag  Ag0  1  0.15859000  0.03042000  0.04478000  1
  Ag  Ag1  1  0.34141000  0.53042000  0.45522000  1
  Ag  Ag2  1  0.65859000  0.46958000  0.54478000  1
  Ag  Ag3  1  0.84141000  0.96958000  0.95522000  1
  H  H4  1  0.01910000  0.37970000  0.28950000  1
  H  H5  1  0.03600000  0.33160000  0.70400000  1
  H  H6  1  0.05640000  0.27800000  0.81750000  1
  H  H7  1  0.05890000  0.55390000  0.19590000  1
  H  H8  1  0.06550000  0.38660000  0.62030000  1
  H  H9  1  0.06700000  0.76390000  0.57460000  1
  H  H10  1  0.09370000  0.03260000  0.84110000  1
  H  H11  1  0.12330000  0.97490000  0.75640000  1
  H  H12  1  0.13220000  0.39430000  0.15540000  1
  H  H13  1  0.14000000  0.72860000  0.74890000  1
  H  H14  1  0.18970000  0.04540000  0.66890000  1
  H  H15  1  0.22830000  0.87030000  0.61480000  1
  H  H16  1  0.23520000  0.70620000  0.87130000  1
  H  H17  1  0.26480000  0.20620000  0.62870000  1
  H  H18  1  0.27170000  0.37030000  0.88520000  1
  H  H19  1  0.31030000  0.54540000  0.83110000  1
  H  H20  1  0.36000000  0.22860000  0.75110000  1
  H  H21  1  0.36780000  0.89430000  0.34460000  1
  H  H22  1  0.37670000  0.47490000  0.74360000  1
  H  H23  1  0.40630000  0.53260000  0.65890000  1
  H  H24  1  0.43300000  0.26390000  0.92540000  1
  H  H25  1  0.43450000  0.88660000  0.87970000  1
  H  H26  1  0.44110000  0.05390000  0.30410000  1
  H  H27  1  0.44360000  0.77800000  0.68250000  1
  H  H28  1  0.46400000  0.83160000  0.79600000  1
  H  H29  1  0.48090000  0.87970000  0.21050000  1
  H  H30  1  0.51910000  0.12030000  0.78950000  1
  H  H31  1  0.53600000  0.16840000  0.20400000  1
  H  H32  1  0.55640000  0.22200000  0.31750000  1
  H  H33  1  0.55890000  0.94610000  0.69590000  1
  H  H34  1  0.56550000  0.11340000  0.12030000  1
  H  H35  1  0.56700000  0.73610000  0.07460000  1
  H  H36  1  0.59370000  0.46740000  0.34110000  1
  H  H37  1  0.62330000  0.52510000  0.25640000  1
  H  H38  1  0.63220000  0.10570000  0.65540000  1
  H  H39  1  0.64000000  0.77140000  0.24890000  1
  H  H40  1  0.68970000  0.45460000  0.16890000  1
  H  H41  1  0.72830000  0.62970000  0.11480000  1
  H  H42  1  0.73520000  0.79380000  0.37130000  1
  H  H43  1  0.76480000  0.29380000  0.12870000  1
  H  H44  1  0.77170000  0.12970000  0.38520000  1
  H  H45  1  0.81030000  0.95460000  0.33110000  1
  H  H46  1  0.86000000  0.27140000  0.25110000  1
  H  H47  1  0.86780000  0.60570000  0.84460000  1
  H  H48  1  0.87670000  0.02510000  0.24360000  1
  H  H49  1  0.90630000  0.96740000  0.15890000  1
  H  H50  1  0.93300000  0.23610000  0.42540000  1
  H  H51  1  0.93450000  0.61340000  0.37970000  1
  H  H52  1  0.94110000  0.44610000  0.80410000  1
  H  H53  1  0.94360000  0.72200000  0.18250000  1
  H  H54  1  0.96400000  0.66840000  0.29600000  1
  H  H55  1  0.98090000  0.62030000  0.71050000  1
  C  C56  1  0.00140000  0.49660000  0.81800000  1
  C  C57  1  0.00720000  0.67920000  0.63710000  1
  C  C58  1  0.01060000  0.23260000  0.11210000  1
  C  C59  1  0.03010000  0.67000000  0.69100000  1
  C  C60  1  0.04270000  0.40660000  0.15810000  1
  C  C61  1  0.04270000  0.67140000  0.86190000  1
  C  C62  1  0.08170000  0.75560000  0.60970000  1
  C  C63  1  0.08810000  0.38980000  0.38870000  1
  C  C64  1  0.11070000  0.37150000  0.69500000  1
  C  C65  1  0.12510000  0.73500000  0.71380000  1
  C  C66  1  0.12790000  0.40480000  0.64520000  1
  C  C67  1  0.13560000  0.47310000  0.81420000  1
  C  C68  1  0.16790000  0.99220000  0.83200000  1
  C  C69  1  0.17620000  0.65370000  0.85810000  1
  C  C70  1  0.17820000  0.82020000  0.63380000  1
  C  C71  1  0.18140000  0.36680000  0.78910000  1
  C  C72  1  0.18600000  0.95720000  0.78120000  1
  C  C73  1  0.19900000  0.80970000  0.68570000  1
  C  C74  1  0.20510000  0.39730000  0.73240000  1
  C  C75  1  0.22070000  0.55620000  0.83410000  1
  C  C76  1  0.23740000  0.46520000  0.63180000  1
  C  C77  1  0.24370000  0.99980000  0.92130000  1
  C  C78  1  0.25630000  0.49980000  0.57870000  1
  C  C79  1  0.26260000  0.96520000  0.86820000  1
  C  C80  1  0.27930000  0.05620000  0.66590000  1
  C  C81  1  0.29490000  0.89730000  0.76760000  1
  C  C82  1  0.30100000  0.30970000  0.81430000  1
  C  C83  1  0.31400000  0.45720000  0.71880000  1
  C  C84  1  0.31860000  0.86680000  0.71090000  1
  C  C85  1  0.32180000  0.32020000  0.86620000  1
  C  C86  1  0.32380000  0.15370000  0.64190000  1
  C  C87  1  0.33210000  0.49220000  0.66800000  1
  C  C88  1  0.36440000  0.97310000  0.68580000  1
  C  C89  1  0.37210000  0.90480000  0.85480000  1
  C  C90  1  0.37490000  0.23500000  0.78620000  1
  C  C91  1  0.38930000  0.87150000  0.80500000  1
  C  C92  1  0.41190000  0.88980000  0.11130000  1
  C  C93  1  0.41830000  0.25560000  0.89030000  1
  C  C94  1  0.45730000  0.17140000  0.63810000  1
  C  C95  1  0.45730000  0.90660000  0.34190000  1
  C  C96  1  0.46990000  0.17000000  0.80900000  1
  C  C97  1  0.48940000  0.73260000  0.38790000  1
  C  C98  1  0.49280000  0.17920000  0.86290000  1
  C  C99  1  0.49860000  0.99660000  0.68200000  1
  C  C100  1  0.50140000  0.00340000  0.31800000  1
  C  C101  1  0.50720000  0.82080000  0.13710000  1
  C  C102  1  0.51060000  0.26740000  0.61210000  1
  C  C103  1  0.53010000  0.83000000  0.19100000  1
  C  C104  1  0.54270000  0.09340000  0.65810000  1
  C  C105  1  0.54270000  0.82860000  0.36190000  1
  C  C106  1  0.58170000  0.74440000  0.10970000  1
  C  C107  1  0.58810000  0.11020000  0.88870000  1
  C  C108  1  0.61070000  0.12850000  0.19500000  1
  C  C109  1  0.62510000  0.76500000  0.21380000  1
  C  C110  1  0.62790000  0.09520000  0.14520000  1
  C  C111  1  0.63560000  0.02690000  0.31420000  1
  C  C112  1  0.66790000  0.50780000  0.33200000  1
  C  C113  1  0.67620000  0.84630000  0.35810000  1
  C  C114  1  0.67820000  0.67980000  0.13380000  1
  C  C115  1  0.68140000  0.13320000  0.28910000  1
  C  C116  1  0.68600000  0.54280000  0.28120000  1
  C  C117  1  0.69900000  0.69030000  0.18570000  1
  C  C118  1  0.70510000  0.10270000  0.23240000  1
  C  C119  1  0.72070000  0.94380000  0.33410000  1
  C  C120  1  0.73740000  0.03480000  0.13180000  1
  C  C121  1  0.74370000  0.50020000  0.42130000  1
  C  C122  1  0.75630000  0.00020000  0.07870000  1
  C  C123  1  0.76260000  0.53480000  0.36820000  1
  C  C124  1  0.77930000  0.44380000  0.16590000  1
  C  C125  1  0.79490000  0.60270000  0.26760000  1
  C  C126  1  0.80100000  0.19030000  0.31430000  1
  C  C127  1  0.81400000  0.04280000  0.21880000  1
  C  C128  1  0.81860000  0.63320000  0.21090000  1
  C  C129  1  0.82180000  0.17980000  0.36620000  1
  C  C130  1  0.82380000  0.34630000  0.14190000  1
  C  C131  1  0.83210000  0.00780000  0.16800000  1
  C  C132  1  0.86440000  0.52690000  0.18580000  1
  C  C133  1  0.87210000  0.59520000  0.35480000  1
  C  C134  1  0.87490000  0.26500000  0.28620000  1
  C  C135  1  0.88930000  0.62850000  0.30500000  1
  C  C136  1  0.91190000  0.61020000  0.61130000  1
  C  C137  1  0.91830000  0.24440000  0.39030000  1
  C  C138  1  0.95730000  0.32860000  0.13810000  1
  C  C139  1  0.95730000  0.59340000  0.84190000  1
  C  C140  1  0.96990000  0.33000000  0.30900000  1
  C  C141  1  0.98940000  0.76740000  0.88790000  1
  C  C142  1  0.99280000  0.32080000  0.36290000  1
  C  C143  1  0.99860000  0.50340000  0.18200000  1
  N  N144  1  0.05390000  0.15680000  0.09100000  1
  N  N145  1  0.15610000  0.45420000  0.40770000  1
  N  N146  1  0.22770000  0.02520000  0.96321000  1
  N  N147  1  0.27230000  0.52520000  0.53679000  1
  N  N148  1  0.34390000  0.95420000  0.09230000  1
  N  N149  1  0.44610000  0.65680000  0.40900000  1
  N  N150  1  0.55390000  0.34320000  0.59100000  1
  N  N151  1  0.65610000  0.04580000  0.90770000  1
  N  N152  1  0.72770000  0.47480000  0.46321000  1
  N  N153  1  0.77230000  0.97480000  0.03679000  1
  N  N154  1  0.84390000  0.54580000  0.59230000  1
  N  N155  1  0.94610000  0.84320000  0.90900000  1
  O  O156  1  0.07870000  0.28480000  0.78780000  1
  O  O157  1  0.42130000  0.78480000  0.71220000  1
  O  O158  1  0.57870000  0.21520000  0.28780000  1
  O  O159  1  0.92130000  0.71520000  0.21220000  1
