# generated using pymatgen
data_ZnH20C22(NO2)2
_symmetry_space_group_name_H-M   'P 1'
_cell_length_a   6.27700000
_cell_length_b   17.70200000
_cell_length_c   20.48600000
_cell_angle_alpha   90.00000000
_cell_angle_beta   97.56500000
_cell_angle_gamma   90.00000000
_symmetry_Int_Tables_number   1
_chemical_formula_structural   ZnH20C22(NO2)2
_chemical_formula_sum   'Zn4 H80 C88 N8 O16'
_cell_volume   2256.49851070
_cell_formula_units_Z   4
loop_
 _symmetry_equiv_pos_site_id
 _symmetry_equiv_pos_as_xyz
  1  'x, y, z'
loop_
 _atom_site_type_symbol
 _atom_site_label
 _atom_site_symmetry_multiplicity
 _atom_site_fract_x
 _atom_site_fract_y
 _atom_site_fract_z
 _atom_site_occupancy
  Zn  Zn0  1  0.18960000  0.51275000  0.77638000  1
  Zn  Zn1  1  0.31040000  0.01275000  0.72362000  1
  Zn  Zn2  1  0.68960000  0.98725000  0.27638000  1
  Zn  Zn3  1  0.81040000  0.48725000  0.22362000  1
  H  H4  1  0.00900000  0.02310000  0.12750000  1
  H  H5  1  0.01740000  0.79100000  0.59340000  1
  H  H6  1  0.01750000  0.39690000  0.86290000  1
  H  H7  1  0.02880000  0.07530000  0.99120000  1
  H  H8  1  0.03130000  0.25590000  0.70930000  1
  H  H9  1  0.03550000  0.41620000  0.45700000  1
  H  H10  1  0.06410000  0.79530000  0.04720000  1
  H  H11  1  0.06710000  0.20940000  0.29660000  1
  H  H12  1  0.08150000  0.38450000  0.14930000  1
  H  H13  1  0.09090000  0.75350000  0.76000000  1
  H  H14  1  0.11900000  0.05660000  0.52470000  1
  H  H15  1  0.15310000  0.96010000  0.97350000  1
  H  H16  1  0.15690000  0.79300000  0.26970000  1
  H  H17  1  0.16090000  0.97110000  0.53940000  1
  H  H18  1  0.17890000  0.57970000  0.64180000  1
  H  H19  1  0.18300000  0.81300000  0.15730000  1
  H  H20  1  0.18700000  0.61230000  0.05410000  1
  H  H21  1  0.20040000  0.89160000  0.43130000  1
  H  H22  1  0.23350000  0.75690000  0.51590000  1
  H  H23  1  0.23550000  0.02470000  0.22320000  1
  H  H24  1  0.26450000  0.52470000  0.27680000  1
  H  H25  1  0.26650000  0.25690000  0.98410000  1
  H  H26  1  0.29960000  0.39160000  0.06870000  1
  H  H27  1  0.31300000  0.11230000  0.44590000  1
  H  H28  1  0.31700000  0.31300000  0.34270000  1
  H  H29  1  0.32110000  0.07970000  0.85820000  1
  H  H30  1  0.33910000  0.47110000  0.96060000  1
  H  H31  1  0.34310000  0.29300000  0.23030000  1
  H  H32  1  0.34690000  0.46010000  0.52650000  1
  H  H33  1  0.38100000  0.55660000  0.97530000  1
  H  H34  1  0.40910000  0.25350000  0.74000000  1
  H  H35  1  0.41850000  0.88450000  0.35070000  1
  H  H36  1  0.43290000  0.70940000  0.20340000  1
  H  H37  1  0.43590000  0.29530000  0.45280000  1
  H  H38  1  0.46450000  0.91620000  0.04300000  1
  H  H39  1  0.46870000  0.75590000  0.79070000  1
  H  H40  1  0.47120000  0.57530000  0.50880000  1
  H  H41  1  0.48250000  0.89690000  0.63710000  1
  H  H42  1  0.48260000  0.29100000  0.90660000  1
  H  H43  1  0.49100000  0.52310000  0.37250000  1
  H  H44  1  0.50900000  0.47690000  0.62750000  1
  H  H45  1  0.51740000  0.70900000  0.09340000  1
  H  H46  1  0.51750000  0.10310000  0.36290000  1
  H  H47  1  0.52880000  0.42470000  0.49120000  1
  H  H48  1  0.53130000  0.24410000  0.20930000  1
  H  H49  1  0.53550000  0.08380000  0.95700000  1
  H  H50  1  0.56410000  0.70470000  0.54720000  1
  H  H51  1  0.56710000  0.29060000  0.79660000  1
  H  H52  1  0.58150000  0.11550000  0.64930000  1
  H  H53  1  0.59090000  0.74650000  0.26000000  1
  H  H54  1  0.61900000  0.44340000  0.02470000  1
  H  H55  1  0.65310000  0.53990000  0.47350000  1
  H  H56  1  0.65690000  0.70700000  0.76970000  1
  H  H57  1  0.66090000  0.52890000  0.03940000  1
  H  H58  1  0.67890000  0.92030000  0.14180000  1
  H  H59  1  0.68300000  0.68700000  0.65730000  1
  H  H60  1  0.68700000  0.88770000  0.55410000  1
  H  H61  1  0.70040000  0.60840000  0.93130000  1
  H  H62  1  0.73350000  0.74310000  0.01590000  1
  H  H63  1  0.73550000  0.47530000  0.72320000  1
  H  H64  1  0.76450000  0.97530000  0.77680000  1
  H  H65  1  0.76650000  0.24310000  0.48410000  1
  H  H66  1  0.79960000  0.10840000  0.56870000  1
  H  H67  1  0.81300000  0.38770000  0.94590000  1
  H  H68  1  0.81700000  0.18700000  0.84270000  1
  H  H69  1  0.82110000  0.42030000  0.35820000  1
  H  H70  1  0.83910000  0.02890000  0.46060000  1
  H  H71  1  0.84310000  0.20700000  0.73030000  1
  H  H72  1  0.84690000  0.03990000  0.02650000  1
  H  H73  1  0.88100000  0.94340000  0.47530000  1
  H  H74  1  0.90910000  0.24650000  0.24000000  1
  H  H75  1  0.91850000  0.61550000  0.85070000  1
  H  H76  1  0.93290000  0.79060000  0.70340000  1
  H  H77  1  0.93590000  0.20470000  0.95280000  1
  H  H78  1  0.96450000  0.58380000  0.54300000  1
  H  H79  1  0.96870000  0.74410000  0.29070000  1
  H  H80  1  0.97120000  0.92470000  0.00880000  1
  H  H81  1  0.98250000  0.60310000  0.13710000  1
  H  H82  1  0.98260000  0.20900000  0.40660000  1
  H  H83  1  0.99100000  0.97690000  0.87250000  1
  C  C84  1  0.00200000  0.78680000  0.26410000  1
  C  C85  1  0.02210000  0.21870000  0.92120000  1
  C  C86  1  0.04300000  0.55800000  0.63830000  1
  C  C87  1  0.04440000  0.55960000  0.12250000  1
  C  C88  1  0.04840000  0.79170000  0.14470000  1
  C  C89  1  0.06480000  0.96820000  0.00840000  1
  C  C90  1  0.07740000  0.22890000  0.80740000  1
  C  C91  1  0.08150000  0.78890000  0.72370000  1
  C  C92  1  0.08560000  0.43900000  0.42110000  1
  C  C93  1  0.10080000  0.00640000  0.50570000  1
  C  C94  1  0.10160000  0.14240000  0.71260000  1
  C  C95  1  0.10370000  0.43100000  0.13020000  1
  C  C96  1  0.14560000  0.00230000  0.12900000  1
  C  C97  1  0.14660000  0.86600000  0.74990000  1
  C  C98  1  0.15220000  0.77030000  0.60700000  1
  C  C99  1  0.16720000  0.56540000  0.07280000  1
  C  C100  1  0.20950000  0.96990000  0.07230000  1
  C  C101  1  0.21740000  0.50330000  0.31380000  1
  C  C102  1  0.21840000  0.24960000  0.93970000  1
  C  C103  1  0.22000000  0.76090000  0.67360000  1
  C  C104  1  0.23200000  0.43510000  0.08110000  1
  C  C105  1  0.23720000  0.00230000  0.45020000  1
  C  C106  1  0.26280000  0.50230000  0.04980000  1
  C  C107  1  0.26800000  0.93510000  0.41890000  1
  C  C108  1  0.28000000  0.26090000  0.82640000  1
  C  C109  1  0.28160000  0.74960000  0.56030000  1
  C  C110  1  0.28260000  0.00330000  0.18620000  1
  C  C111  1  0.29050000  0.46990000  0.42770000  1
  C  C112  1  0.33280000  0.06540000  0.42720000  1
  C  C113  1  0.34780000  0.27030000  0.89300000  1
  C  C114  1  0.35340000  0.36600000  0.75010000  1
  C  C115  1  0.35440000  0.50230000  0.37100000  1
  C  C116  1  0.39630000  0.93100000  0.36980000  1
  C  C117  1  0.39840000  0.64240000  0.78740000  1
  C  C118  1  0.39920000  0.50640000  0.99430000  1
  C  C119  1  0.41440000  0.93900000  0.07890000  1
  C  C120  1  0.41850000  0.28890000  0.77630000  1
  C  C121  1  0.42260000  0.72890000  0.69260000  1
  C  C122  1  0.43520000  0.46820000  0.49160000  1
  C  C123  1  0.45160000  0.29170000  0.35530000  1
  C  C124  1  0.45560000  0.05960000  0.37750000  1
  C  C125  1  0.45700000  0.05800000  0.86170000  1
  C  C126  1  0.47790000  0.71870000  0.57880000  1
  C  C127  1  0.49800000  0.28680000  0.23590000  1
  C  C128  1  0.50200000  0.71320000  0.76410000  1
  C  C129  1  0.52210000  0.28130000  0.42120000  1
  C  C130  1  0.54300000  0.94200000  0.13830000  1
  C  C131  1  0.54440000  0.94040000  0.62250000  1
  C  C132  1  0.54840000  0.70830000  0.64470000  1
  C  C133  1  0.56480000  0.53180000  0.50840000  1
  C  C134  1  0.57740000  0.27110000  0.30740000  1
  C  C135  1  0.58150000  0.71110000  0.22370000  1
  C  C136  1  0.58560000  0.06100000  0.92110000  1
  C  C137  1  0.60080000  0.49360000  0.00570000  1
  C  C138  1  0.60160000  0.35760000  0.21260000  1
  C  C139  1  0.60370000  0.06900000  0.63020000  1
  C  C140  1  0.64560000  0.49770000  0.62900000  1
  C  C141  1  0.64660000  0.63400000  0.24990000  1
  C  C142  1  0.65220000  0.72970000  0.10700000  1
  C  C143  1  0.66720000  0.93460000  0.57280000  1
  C  C144  1  0.70950000  0.53010000  0.57230000  1
  C  C145  1  0.71740000  0.99670000  0.81380000  1
  C  C146  1  0.71840000  0.25040000  0.43970000  1
  C  C147  1  0.72000000  0.73910000  0.17360000  1
  C  C148  1  0.73200000  0.06490000  0.58110000  1
  C  C149  1  0.73720000  0.49770000  0.95020000  1
  C  C150  1  0.76280000  0.99770000  0.54980000  1
  C  C151  1  0.76800000  0.56490000  0.91890000  1
  C  C152  1  0.78000000  0.23910000  0.32640000  1
  C  C153  1  0.78160000  0.75040000  0.06030000  1
  C  C154  1  0.78260000  0.49670000  0.68620000  1
  C  C155  1  0.79050000  0.03010000  0.92770000  1
  C  C156  1  0.83280000  0.43460000  0.92720000  1
  C  C157  1  0.84780000  0.22970000  0.39300000  1
  C  C158  1  0.85340000  0.13400000  0.25010000  1
  C  C159  1  0.85440000  0.99770000  0.87100000  1
  C  C160  1  0.89630000  0.56900000  0.86980000  1
  C  C161  1  0.89840000  0.85760000  0.28740000  1
  C  C162  1  0.89920000  0.99360000  0.49430000  1
  C  C163  1  0.91440000  0.56100000  0.57890000  1
  C  C164  1  0.91850000  0.21110000  0.27630000  1
  C  C165  1  0.92260000  0.77110000  0.19260000  1
  C  C166  1  0.93520000  0.03180000  0.99160000  1
  C  C167  1  0.95160000  0.20830000  0.85530000  1
  C  C168  1  0.95560000  0.44040000  0.87750000  1
  C  C169  1  0.95700000  0.44200000  0.36170000  1
  C  C170  1  0.97790000  0.78130000  0.07880000  1
  C  C171  1  0.99800000  0.21320000  0.73590000  1
  N  N172  1  0.00900000  0.49310000  0.15140000  1
  N  N173  1  0.01890000  0.47510000  0.30830000  1
  N  N174  1  0.48110000  0.97510000  0.19170000  1
  N  N175  1  0.49100000  0.99310000  0.34860000  1
  N  N176  1  0.50900000  0.00690000  0.65140000  1
  N  N177  1  0.51890000  0.02490000  0.80830000  1
  N  N178  1  0.98110000  0.52490000  0.69170000  1
  N  N179  1  0.99100000  0.50690000  0.84860000  1
  O  O180  1  0.08780000  0.08370000  0.74480000  1
  O  O181  1  0.15690000  0.88060000  0.80930000  1
  O  O182  1  0.18860000  0.91350000  0.70720000  1
  O  O183  1  0.19870000  0.14290000  0.66570000  1
  O  O184  1  0.30130000  0.64290000  0.83430000  1
  O  O185  1  0.31140000  0.41350000  0.79280000  1
  O  O186  1  0.34310000  0.38060000  0.69070000  1
  O  O187  1  0.41220000  0.58370000  0.75520000  1
  O  O188  1  0.58780000  0.41630000  0.24480000  1
  O  O189  1  0.65690000  0.61940000  0.30930000  1
  O  O190  1  0.68860000  0.58650000  0.20720000  1
  O  O191  1  0.69870000  0.35710000  0.16570000  1
  O  O192  1  0.80130000  0.85710000  0.33430000  1
  O  O193  1  0.81140000  0.08650000  0.29280000  1
  O  O194  1  0.84310000  0.11940000  0.19070000  1
  O  O195  1  0.91220000  0.91630000  0.25520000  1
