# generated using pymatgen
data_ErZnH7C12(NO2)4
_symmetry_space_group_name_H-M   'P 1'
_cell_length_a   9.17350000
_cell_length_b   12.95640000
_cell_length_c   18.50790000
_cell_angle_alpha   72.20160000
_cell_angle_beta   75.65100000
_cell_angle_gamma   69.26690000
_symmetry_Int_Tables_number   1
_chemical_formula_structural   ErZnH7C12(NO2)4
_chemical_formula_sum   'Er4 Zn4 H28 C48 N16 O32'
_cell_volume   1934.61526223
_cell_formula_units_Z   4
loop_
 _symmetry_equiv_pos_site_id
 _symmetry_equiv_pos_as_xyz
  1  'x, y, z'
loop_
 _atom_site_type_symbol
 _atom_site_label
 _atom_site_symmetry_multiplicity
 _atom_site_fract_x
 _atom_site_fract_y
 _atom_site_fract_z
 _atom_site_occupancy
  Er  Er0  1  0.15239000  0.08879000  0.99491000  1
  Er  Er1  1  0.23609000  0.41122000  0.50508000  1
  Er  Er2  1  0.76391000  0.58879000  0.49491000  1
  Er  Er3  1  0.84761000  0.91122000  0.00508000  1
  Zn  Zn4  1  0.20140000  0.91156000  0.66404000  1
  Zn  Zn5  1  0.22300000  0.41156000  0.16404000  1
  Zn  Zn6  1  0.77700000  0.58844000  0.83596000  1
  Zn  Zn7  1  0.79860000  0.08844000  0.33596000  1
  H  H8  1  0.00730000  0.65890000  0.64890000  1
  H  H9  1  0.11390000  0.10650000  0.40830000  1
  H  H10  1  0.14370000  0.57630000  0.69470000  1
  H  H11  1  0.16630000  0.68700000  0.63480000  1
  H  H12  1  0.24520000  0.04460000  0.35000000  1
  H  H13  1  0.26490000  0.01200000  0.43660000  1
  H  H14  1  0.26830000  0.80550000  0.46390000  1
  H  H15  1  0.28650000  0.51200000  0.93660000  1
  H  H16  1  0.31510000  0.84110000  0.85110000  1
  H  H17  1  0.36020000  0.54460000  0.85000000  1
  H  H18  1  0.37130000  0.60650000  0.90830000  1
  H  H19  1  0.41470000  0.92370000  0.80530000  1
  H  H20  1  0.46230000  0.30550000  0.96390000  1
  H  H21  1  0.48810000  0.81300000  0.86520000  1
  H  H22  1  0.51190000  0.18700000  0.13480000  1
  H  H23  1  0.53770000  0.69450000  0.03610000  1
  H  H24  1  0.58530000  0.07630000  0.19470000  1
  H  H25  1  0.62870000  0.39350000  0.09170000  1
  H  H26  1  0.63980000  0.45540000  0.15000000  1
  H  H27  1  0.68490000  0.15890000  0.14890000  1
  H  H28  1  0.71350000  0.48800000  0.06340000  1
  H  H29  1  0.73170000  0.19450000  0.53610000  1
  H  H30  1  0.73510000  0.98800000  0.56340000  1
  H  H31  1  0.75480000  0.95540000  0.65000000  1
  H  H32  1  0.83370000  0.31300000  0.36520000  1
  H  H33  1  0.85630000  0.42370000  0.30530000  1
  H  H34  1  0.88610000  0.89350000  0.59170000  1
  H  H35  1  0.99270000  0.34110000  0.35110000  1
  C  C36  1  0.00114000  0.94202000  0.81370000  1
  C  C37  1  0.01980000  0.15750000  0.20070000  1
  C  C38  1  0.02775000  0.71800000  0.73390000  1
  C  C39  1  0.06189000  0.13922000  0.57060000  1
  C  C40  1  0.06300000  0.64050000  0.07830000  1
  C  C41  1  0.06870000  0.77880000  0.45760000  1
  C  C42  1  0.09200000  0.65430000  0.67270000  1
  C  C43  1  0.10690000  0.23220000  0.16160000  1
  C  C44  1  0.10960000  0.94780000  0.41840000  1
  C  C45  1  0.11850000  0.65290000  0.47950000  1
  C  C46  1  0.19050000  0.03550000  0.40190000  1
  C  C47  1  0.21820000  0.14050000  0.57830000  1
  C  C48  1  0.22690000  0.23760000  0.09140000  1
  C  C49  1  0.22829000  0.63922000  0.07060000  1
  C  C50  1  0.24314000  0.44202000  0.31370000  1
  C  C51  1  0.25090000  0.84710000  0.02050000  1
  C  C52  1  0.30510000  0.72120000  0.04240000  1
  C  C53  1  0.37210000  0.53550000  0.90190000  1
  C  C54  1  0.37800000  0.34250000  0.29930000  1
  C  C55  1  0.41900000  0.84570000  0.82730000  1
  C  C56  1  0.44410000  0.73760000  0.59140000  1
  C  C57  1  0.47580000  0.55220000  0.08160000  1
  C  C58  1  0.47965000  0.78200000  0.76610000  1
  C  C59  1  0.49930000  0.73220000  0.66160000  1
  C  C60  1  0.50070000  0.26780000  0.33840000  1
  C  C61  1  0.52035000  0.21800000  0.23390000  1
  C  C62  1  0.52420000  0.44780000  0.91840000  1
  C  C63  1  0.55590000  0.26240000  0.40860000  1
  C  C64  1  0.58100000  0.15430000  0.17270000  1
  C  C65  1  0.62200000  0.65750000  0.70070000  1
  C  C66  1  0.62790000  0.46450000  0.09810000  1
  C  C67  1  0.69490000  0.27880000  0.95760000  1
  C  C68  1  0.74910000  0.15290000  0.97950000  1
  C  C69  1  0.75686000  0.55798000  0.68630000  1
  C  C70  1  0.77171000  0.36078000  0.92940000  1
  C  C71  1  0.77310000  0.76240000  0.90860000  1
  C  C72  1  0.78180000  0.85950000  0.42170000  1
  C  C73  1  0.80950000  0.96450000  0.59810000  1
  C  C74  1  0.88150000  0.34710000  0.52050000  1
  C  C75  1  0.89040000  0.05220000  0.58160000  1
  C  C76  1  0.89310000  0.76780000  0.83840000  1
  C  C77  1  0.90800000  0.34570000  0.32730000  1
  C  C78  1  0.93130000  0.22120000  0.54240000  1
  C  C79  1  0.93700000  0.35950000  0.92170000  1
  C  C80  1  0.93811000  0.86078000  0.42940000  1
  C  C81  1  0.97225000  0.28200000  0.26610000  1
  C  C82  1  0.98020000  0.84250000  0.79930000  1
  C  C83  1  0.99886000  0.05798000  0.18630000  1
  N  N84  1  0.03354000  0.03512000  0.59540000  1
  N  N85  1  0.06346000  0.81018000  0.73310000  1
  N  N86  1  0.07588000  0.30994000  0.20390000  1
  N  N87  1  0.17410000  0.83620000  0.45020000  1
  N  N88  1  0.33594000  0.53512000  0.09540000  1
  N  N89  1  0.39326000  0.31018000  0.23310000  1
  N  N90  1  0.41028000  0.80994000  0.70390000  1
  N  N91  1  0.46050000  0.66380000  0.04980000  1
  N  N92  1  0.53950000  0.33620000  0.95020000  1
  N  N93  1  0.58972000  0.19006000  0.29610000  1
  N  N94  1  0.60674000  0.68982000  0.76690000  1
  N  N95  1  0.66406000  0.46488000  0.90460000  1
  N  N96  1  0.82590000  0.16380000  0.54980000  1
  N  N97  1  0.92412000  0.69006000  0.79610000  1
  N  N98  1  0.93654000  0.18982000  0.26690000  1
  N  N99  1  0.96646000  0.96488000  0.40460000  1
  O  O100  1  0.01968000  0.59843000  0.49581000  1
  O  O101  1  0.02943000  0.55324000  0.11810000  1
  O  O102  1  0.03418000  0.27294000  0.95710000  1
  O  O103  1  0.05566000  0.03216000  0.12112000  1
  O  O104  1  0.07732000  0.99794000  0.76082000  1
  O  O105  1  0.11392000  0.90157000  0.00419000  1
  O  O106  1  0.16392000  0.49794000  0.26082000  1
  O  O107  1  0.20894000  0.46784000  0.37888000  1
  O  O108  1  0.26255000  0.60000000  0.48210000  1
  O  O109  1  0.26422000  0.22706000  0.54290000  1
  O  O110  1  0.26866000  0.16159000  0.05409000  1
  O  O111  1  0.28648000  0.31730000  0.07354000  1
  O  O112  1  0.29923000  0.05324000  0.61810000  1
  O  O113  1  0.32268000  0.81730000  0.57354000  1
  O  O114  1  0.34465000  0.90000000  0.01790000  1
  O  O115  1  0.48434000  0.33841000  0.44591000  1
  O  O116  1  0.51566000  0.66159000  0.55409000  1
  O  O117  1  0.65535000  0.10000000  0.98210000  1
  O  O118  1  0.67732000  0.18270000  0.42646000  1
  O  O119  1  0.70077000  0.94676000  0.38190000  1
  O  O120  1  0.71352000  0.68270000  0.92646000  1
  O  O121  1  0.73134000  0.83841000  0.94591000  1
  O  O122  1  0.73578000  0.77294000  0.45710000  1
  O  O123  1  0.73745000  0.40000000  0.51790000  1
  O  O124  1  0.79106000  0.53216000  0.62112000  1
  O  O125  1  0.83608000  0.50206000  0.73918000  1
  O  O126  1  0.88608000  0.09843000  0.99581000  1
  O  O127  1  0.92268000  0.00206000  0.23918000  1
  O  O128  1  0.94434000  0.96784000  0.87888000  1
  O  O129  1  0.96582000  0.72706000  0.04290000  1
  O  O130  1  0.97057000  0.44676000  0.88190000  1
  O  O131  1  0.98032000  0.40157000  0.50419000  1
