# generated using pymatgen
data_CuH13C21(NO)4
_symmetry_space_group_name_H-M   'P 1'
_cell_length_a   11.92720000
_cell_length_b   13.95400000
_cell_length_c   20.18500000
_cell_angle_alpha   90.00000000
_cell_angle_beta   90.00000000
_cell_angle_gamma   90.00000000
_symmetry_Int_Tables_number   1
_chemical_formula_structural   CuH13C21(NO)4
_chemical_formula_sum   'Cu4 H52 C84 N16 O16'
_cell_volume   3359.43292353
_cell_formula_units_Z   4
loop_
 _symmetry_equiv_pos_site_id
 _symmetry_equiv_pos_as_xyz
  1  'x, y, z'
loop_
 _atom_site_type_symbol
 _atom_site_label
 _atom_site_symmetry_multiplicity
 _atom_site_fract_x
 _atom_site_fract_y
 _atom_site_fract_z
 _atom_site_occupancy
  Cu  Cu0  1  0.23743000  0.57272000  0.50000000  1
  Cu  Cu1  1  0.26257000  0.07272000  0.00000000  1
  Cu  Cu2  1  0.73743000  0.92728000  0.00000000  1
  Cu  Cu3  1  0.76257000  0.42728000  0.50000000  1
  H  H4  1  0.01430000  0.83480000  0.11430000  1
  H  H5  1  0.01430000  0.83480000  0.88570000  1
  H  H6  1  0.03100000  0.77880000  0.22680000  1
  H  H7  1  0.03100000  0.77880000  0.77320000  1
  H  H8  1  0.03660000  0.09900000  0.00000000  1
  H  H9  1  0.07320000  0.69920000  0.32790000  1
  H  H10  1  0.07320000  0.69920000  0.67210000  1
  H  H11  1  0.13550000  0.32590000  0.15990000  1
  H  H12  1  0.13550000  0.32590000  0.84010000  1
  H  H13  1  0.16730000  0.40190000  0.26570000  1
  H  H14  1  0.16730000  0.40190000  0.73430000  1
  H  H15  1  0.20780000  0.48960000  0.35490000  1
  H  H16  1  0.20780000  0.48960000  0.64510000  1
  H  H17  1  0.29220000  0.98960000  0.14510000  1
  H  H18  1  0.29220000  0.98960000  0.85490000  1
  H  H19  1  0.33270000  0.90190000  0.23430000  1
  H  H20  1  0.33270000  0.90190000  0.76570000  1
  H  H21  1  0.36450000  0.82590000  0.34010000  1
  H  H22  1  0.36450000  0.82590000  0.65990000  1
  H  H23  1  0.42680000  0.19920000  0.17210000  1
  H  H24  1  0.42680000  0.19920000  0.82790000  1
  H  H25  1  0.46340000  0.59900000  0.50000000  1
  H  H26  1  0.46900000  0.27880000  0.27320000  1
  H  H27  1  0.46900000  0.27880000  0.72680000  1
  H  H28  1  0.48570000  0.33480000  0.38570000  1
  H  H29  1  0.48570000  0.33480000  0.61430000  1
  H  H30  1  0.51430000  0.66520000  0.38570000  1
  H  H31  1  0.51430000  0.66520000  0.61430000  1
  H  H32  1  0.53100000  0.72120000  0.27320000  1
  H  H33  1  0.53100000  0.72120000  0.72680000  1
  H  H34  1  0.53660000  0.40100000  0.50000000  1
  H  H35  1  0.57320000  0.80080000  0.17210000  1
  H  H36  1  0.57320000  0.80080000  0.82790000  1
  H  H37  1  0.63550000  0.17410000  0.34010000  1
  H  H38  1  0.63550000  0.17410000  0.65990000  1
  H  H39  1  0.66730000  0.09810000  0.23430000  1
  H  H40  1  0.66730000  0.09810000  0.76570000  1
  H  H41  1  0.70780000  0.01040000  0.14510000  1
  H  H42  1  0.70780000  0.01040000  0.85490000  1
  H  H43  1  0.79220000  0.51040000  0.35490000  1
  H  H44  1  0.79220000  0.51040000  0.64510000  1
  H  H45  1  0.83270000  0.59810000  0.26570000  1
  H  H46  1  0.83270000  0.59810000  0.73430000  1
  H  H47  1  0.86450000  0.67410000  0.15990000  1
  H  H48  1  0.86450000  0.67410000  0.84010000  1
  H  H49  1  0.92680000  0.30080000  0.32790000  1
  H  H50  1  0.92680000  0.30080000  0.67210000  1
  H  H51  1  0.96340000  0.90100000  0.00000000  1
  H  H52  1  0.96900000  0.22120000  0.22680000  1
  H  H53  1  0.96900000  0.22120000  0.77320000  1
  H  H54  1  0.98570000  0.16520000  0.11430000  1
  H  H55  1  0.98570000  0.16520000  0.88570000  1
  C  C56  1  0.02530000  0.94920000  0.00000000  1
  C  C57  1  0.07440000  0.87900000  0.10970000  1
  C  C58  1  0.07440000  0.87900000  0.89030000  1
  C  C59  1  0.10040000  0.78850000  0.24890000  1
  C  C60  1  0.10040000  0.78850000  0.75110000  1
  C  C61  1  0.12680000  0.74130000  0.30880000  1
  C  C62  1  0.12680000  0.74130000  0.69120000  1
  C  C63  1  0.16070000  0.89640000  0.15610000  1
  C  C64  1  0.16070000  0.89640000  0.84390000  1
  C  C65  1  0.17750000  0.84670000  0.22550000  1
  C  C66  1  0.17750000  0.84670000  0.77450000  1
  C  C67  1  0.20240000  0.31380000  0.18400000  1
  C  C68  1  0.20240000  0.31380000  0.81600000  1
  C  C69  1  0.22220000  0.36170000  0.24600000  1
  C  C70  1  0.22220000  0.36170000  0.75400000  1
  C  C71  1  0.22350000  0.75380000  0.33900000  1
  C  C72  1  0.22350000  0.75380000  0.66100000  1
  C  C73  1  0.22570000  0.96440000  0.12590000  1
  C  C74  1  0.22570000  0.96440000  0.87410000  1
  C  C75  1  0.24520000  0.20010000  0.09600000  1
  C  C76  1  0.24520000  0.20010000  0.90400000  1
  C  C77  1  0.25480000  0.70010000  0.40400000  1
  C  C78  1  0.25480000  0.70010000  0.59600000  1
  C  C79  1  0.27430000  0.46440000  0.37410000  1
  C  C80  1  0.27430000  0.46440000  0.62590000  1
  C  C81  1  0.27650000  0.25380000  0.16100000  1
  C  C82  1  0.27650000  0.25380000  0.83900000  1
  C  C83  1  0.27780000  0.86170000  0.25400000  1
  C  C84  1  0.27780000  0.86170000  0.74600000  1
  C  C85  1  0.29760000  0.81380000  0.31600000  1
  C  C86  1  0.29760000  0.81380000  0.68400000  1
  C  C87  1  0.32250000  0.34670000  0.27450000  1
  C  C88  1  0.32250000  0.34670000  0.72550000  1
  C  C89  1  0.33930000  0.39640000  0.34390000  1
  C  C90  1  0.33930000  0.39640000  0.65610000  1
  C  C91  1  0.37320000  0.24130000  0.19120000  1
  C  C92  1  0.37320000  0.24130000  0.80880000  1
  C  C93  1  0.39960000  0.28850000  0.25110000  1
  C  C94  1  0.39960000  0.28850000  0.74890000  1
  C  C95  1  0.42560000  0.37900000  0.39030000  1
  C  C96  1  0.42560000  0.37900000  0.60970000  1
  C  C97  1  0.47470000  0.44920000  0.50000000  1
  C  C98  1  0.52530000  0.55080000  0.50000000  1
  C  C99  1  0.57440000  0.62100000  0.39030000  1
  C  C100  1  0.57440000  0.62100000  0.60970000  1
  C  C101  1  0.60040000  0.71150000  0.25110000  1
  C  C102  1  0.60040000  0.71150000  0.74890000  1
  C  C103  1  0.62680000  0.75870000  0.19120000  1
  C  C104  1  0.62680000  0.75870000  0.80880000  1
  C  C105  1  0.66070000  0.60360000  0.34390000  1
  C  C106  1  0.66070000  0.60360000  0.65610000  1
  C  C107  1  0.67750000  0.65330000  0.27450000  1
  C  C108  1  0.67750000  0.65330000  0.72550000  1
  C  C109  1  0.70240000  0.18620000  0.31600000  1
  C  C110  1  0.70240000  0.18620000  0.68400000  1
  C  C111  1  0.72220000  0.13830000  0.25400000  1
  C  C112  1  0.72220000  0.13830000  0.74600000  1
  C  C113  1  0.72350000  0.74620000  0.16100000  1
  C  C114  1  0.72350000  0.74620000  0.83900000  1
  C  C115  1  0.72570000  0.53560000  0.37410000  1
  C  C116  1  0.72570000  0.53560000  0.62590000  1
  C  C117  1  0.74520000  0.29990000  0.40400000  1
  C  C118  1  0.74520000  0.29990000  0.59600000  1
  C  C119  1  0.75480000  0.79990000  0.09600000  1
  C  C120  1  0.75480000  0.79990000  0.90400000  1
  C  C121  1  0.77430000  0.03560000  0.12590000  1
  C  C122  1  0.77430000  0.03560000  0.87410000  1
  C  C123  1  0.77650000  0.24620000  0.33900000  1
  C  C124  1  0.77650000  0.24620000  0.66100000  1
  C  C125  1  0.77780000  0.63830000  0.24600000  1
  C  C126  1  0.77780000  0.63830000  0.75400000  1
  C  C127  1  0.79760000  0.68620000  0.18400000  1
  C  C128  1  0.79760000  0.68620000  0.81600000  1
  C  C129  1  0.82250000  0.15330000  0.22550000  1
  C  C130  1  0.82250000  0.15330000  0.77450000  1
  C  C131  1  0.83930000  0.10360000  0.15610000  1
  C  C132  1  0.83930000  0.10360000  0.84390000  1
  C  C133  1  0.87320000  0.25870000  0.30880000  1
  C  C134  1  0.87320000  0.25870000  0.69120000  1
  C  C135  1  0.89960000  0.21150000  0.24890000  1
  C  C136  1  0.89960000  0.21150000  0.75110000  1
  C  C137  1  0.92560000  0.12100000  0.10970000  1
  C  C138  1  0.92560000  0.12100000  0.89030000  1
  C  C139  1  0.97470000  0.05080000  0.00000000  1
  N  N140  1  0.09330000  0.93610000  0.05840000  1
  N  N141  1  0.09330000  0.93610000  0.94160000  1
  N  N142  1  0.18700000  0.99160000  0.06750000  1
  N  N143  1  0.18700000  0.99160000  0.93250000  1
  N  N144  1  0.31300000  0.49160000  0.43250000  1
  N  N145  1  0.31300000  0.49160000  0.56750000  1
  N  N146  1  0.40670000  0.43610000  0.44160000  1
  N  N147  1  0.40670000  0.43610000  0.55840000  1
  N  N148  1  0.59330000  0.56390000  0.44160000  1
  N  N149  1  0.59330000  0.56390000  0.55840000  1
  N  N150  1  0.68700000  0.50840000  0.43250000  1
  N  N151  1  0.68700000  0.50840000  0.56750000  1
  N  N152  1  0.81300000  0.00840000  0.06750000  1
  N  N153  1  0.81300000  0.00840000  0.93250000  1
  N  N154  1  0.90670000  0.06390000  0.05840000  1
  N  N155  1  0.90670000  0.06390000  0.94160000  1
  O  O156  1  0.15080000  0.20860000  0.07440000  1
  O  O157  1  0.15080000  0.20860000  0.92560000  1
  O  O158  1  0.17840000  0.65330000  0.42790000  1
  O  O159  1  0.17840000  0.65330000  0.57210000  1
  O  O160  1  0.32160000  0.15330000  0.07210000  1
  O  O161  1  0.32160000  0.15330000  0.92790000  1
  O  O162  1  0.34920000  0.70860000  0.42560000  1
  O  O163  1  0.34920000  0.70860000  0.57440000  1
  O  O164  1  0.65080000  0.29140000  0.42560000  1
  O  O165  1  0.65080000  0.29140000  0.57440000  1
  O  O166  1  0.67840000  0.84670000  0.07210000  1
  O  O167  1  0.67840000  0.84670000  0.92790000  1
  O  O168  1  0.82160000  0.34670000  0.42790000  1
  O  O169  1  0.82160000  0.34670000  0.57210000  1
  O  O170  1  0.84920000  0.79140000  0.07440000  1
  O  O171  1  0.84920000  0.79140000  0.92560000  1
