# generated using pymatgen
data_CuH18(C15O2)2
_symmetry_space_group_name_H-M   'P 1'
_cell_length_a   48.30330000
_cell_length_b   48.30330000
_cell_length_c   48.30330000
_cell_angle_alpha   60.00000000
_cell_angle_beta   60.00000000
_cell_angle_gamma   60.00000000
_symmetry_Int_Tables_number   1
_chemical_formula_structural   CuH18(C15O2)2
_chemical_formula_sum   'Cu12 H216 C360 O48'
_cell_volume   79692.12514118
_cell_formula_units_Z   12
loop_
 _symmetry_equiv_pos_site_id
 _symmetry_equiv_pos_as_xyz
  1  'x, y, z'
loop_
 _atom_site_type_symbol
 _atom_site_label
 _atom_site_symmetry_multiplicity
 _atom_site_fract_x
 _atom_site_fract_y
 _atom_site_fract_z
 _atom_site_occupancy
  Cu  Cu0  1  0.02728000  0.50000000  0.97272000  1
  Cu  Cu1  1  0.50000000  0.02728000  0.97272000  1
  Cu  Cu2  1  0.50000000  0.50000000  0.97272000  1
  Cu  Cu3  1  0.02728000  0.50000000  0.50000000  1
  Cu  Cu4  1  0.50000000  0.02728000  0.50000000  1
  Cu  Cu5  1  0.02728000  0.97272000  0.50000000  1
  Cu  Cu6  1  0.97272000  0.02728000  0.50000000  1
  Cu  Cu7  1  0.50000000  0.97272000  0.50000000  1
  Cu  Cu8  1  0.97272000  0.50000000  0.50000000  1
  Cu  Cu9  1  0.50000000  0.50000000  0.02728000  1
  Cu  Cu10  1  0.50000000  0.97272000  0.02728000  1
  Cu  Cu11  1  0.97272000  0.50000000  0.02728000  1
  H  H12  1  0.48510000  0.60370000  0.99810000  1
  H  H13  1  0.60370000  0.48510000  0.99810000  1
  H  H14  1  0.48510000  0.91310000  0.99810000  1
  H  H15  1  0.91310000  0.48510000  0.99810000  1
  H  H16  1  0.60370000  0.91310000  0.99810000  1
  H  H17  1  0.91310000  0.60370000  0.99810000  1
  H  H18  1  0.47690000  0.66270000  0.97270000  1
  H  H19  1  0.66270000  0.47690000  0.97270000  1
  H  H20  1  0.47690000  0.88770000  0.97270000  1
  H  H21  1  0.88770000  0.47690000  0.97270000  1
  H  H22  1  0.66270000  0.88770000  0.97270000  1
  H  H23  1  0.88770000  0.66270000  0.97270000  1
  H  H24  1  0.47960000  0.70740000  0.94880000  1
  H  H25  1  0.70740000  0.47960000  0.94880000  1
  H  H26  1  0.47960000  0.86420000  0.94880000  1
  H  H27  1  0.86420000  0.47960000  0.94880000  1
  H  H28  1  0.70740000  0.86420000  0.94880000  1
  H  H29  1  0.86420000  0.70740000  0.94880000  1
  H  H30  1  0.47550000  0.76530000  0.92190000  1
  H  H31  1  0.76530000  0.47550000  0.92190000  1
  H  H32  1  0.47550000  0.83730000  0.92190000  1
  H  H33  1  0.83730000  0.47550000  0.92190000  1
  H  H34  1  0.76530000  0.83730000  0.92190000  1
  H  H35  1  0.83730000  0.76530000  0.92190000  1
  H  H36  1  0.48510000  0.60370000  0.91310000  1
  H  H37  1  0.60370000  0.48510000  0.91310000  1
  H  H38  1  0.48510000  0.99810000  0.91310000  1
  H  H39  1  0.99810000  0.48510000  0.91310000  1
  H  H40  1  0.60370000  0.99810000  0.91310000  1
  H  H41  1  0.99810000  0.60370000  0.91310000  1
  H  H42  1  0.46840000  0.81560000  0.90040000  1
  H  H43  1  0.81560000  0.46840000  0.90040000  1
  H  H44  1  0.81560000  0.81560000  0.90040000  1
  H  H45  1  0.47690000  0.66270000  0.88770000  1
  H  H46  1  0.66270000  0.47690000  0.88770000  1
  H  H47  1  0.47690000  0.97270000  0.88770000  1
  H  H48  1  0.97270000  0.47690000  0.88770000  1
  H  H49  1  0.66270000  0.97270000  0.88770000  1
  H  H50  1  0.97270000  0.66270000  0.88770000  1
  H  H51  1  0.47960000  0.70740000  0.86420000  1
  H  H52  1  0.70740000  0.47960000  0.86420000  1
  H  H53  1  0.47960000  0.94880000  0.86420000  1
  H  H54  1  0.94880000  0.47960000  0.86420000  1
  H  H55  1  0.70740000  0.94880000  0.86420000  1
  H  H56  1  0.94880000  0.70740000  0.86420000  1
  H  H57  1  0.47550000  0.76530000  0.83730000  1
  H  H58  1  0.76530000  0.47550000  0.83730000  1
  H  H59  1  0.47550000  0.92190000  0.83730000  1
  H  H60  1  0.92190000  0.47550000  0.83730000  1
  H  H61  1  0.76530000  0.92190000  0.83730000  1
  H  H62  1  0.92190000  0.76530000  0.83730000  1
  H  H63  1  0.46840000  0.81560000  0.81560000  1
  H  H64  1  0.81560000  0.46840000  0.81560000  1
  H  H65  1  0.46840000  0.90040000  0.81560000  1
  H  H66  1  0.90040000  0.46840000  0.81560000  1
  H  H67  1  0.81560000  0.90040000  0.81560000  1
  H  H68  1  0.90040000  0.81560000  0.81560000  1
  H  H69  1  0.47550000  0.83730000  0.76530000  1
  H  H70  1  0.83730000  0.47550000  0.76530000  1
  H  H71  1  0.47550000  0.92190000  0.76530000  1
  H  H72  1  0.92190000  0.47550000  0.76530000  1
  H  H73  1  0.83730000  0.92190000  0.76530000  1
  H  H74  1  0.92190000  0.83730000  0.76530000  1
  H  H75  1  0.47960000  0.86420000  0.70740000  1
  H  H76  1  0.86420000  0.47960000  0.70740000  1
  H  H77  1  0.47960000  0.94880000  0.70740000  1
  H  H78  1  0.94880000  0.47960000  0.70740000  1
  H  H79  1  0.86420000  0.94880000  0.70740000  1
  H  H80  1  0.94880000  0.86420000  0.70740000  1
  H  H81  1  0.47690000  0.88770000  0.66270000  1
  H  H82  1  0.88770000  0.47690000  0.66270000  1
  H  H83  1  0.47690000  0.97270000  0.66270000  1
  H  H84  1  0.97270000  0.47690000  0.66270000  1
  H  H85  1  0.88770000  0.97270000  0.66270000  1
  H  H86  1  0.97270000  0.88770000  0.66270000  1
  H  H87  1  0.48510000  0.91310000  0.60370000  1
  H  H88  1  0.91310000  0.48510000  0.60370000  1
  H  H89  1  0.48510000  0.99810000  0.60370000  1
  H  H90  1  0.99810000  0.48510000  0.60370000  1
  H  H91  1  0.91310000  0.99810000  0.60370000  1
  H  H92  1  0.99810000  0.91310000  0.60370000  1
  H  H93  1  0.09960000  0.18440000  0.53160000  1
  H  H94  1  0.18440000  0.09960000  0.53160000  1
  H  H95  1  0.18440000  0.18440000  0.53160000  1
  H  H96  1  0.07810000  0.16270000  0.52450000  1
  H  H97  1  0.16270000  0.07810000  0.52450000  1
  H  H98  1  0.07810000  0.23470000  0.52450000  1
  H  H99  1  0.23470000  0.07810000  0.52450000  1
  H  H100  1  0.16270000  0.23470000  0.52450000  1
  H  H101  1  0.23470000  0.16270000  0.52450000  1
  H  H102  1  0.02730000  0.11230000  0.52310000  1
  H  H103  1  0.11230000  0.02730000  0.52310000  1
  H  H104  1  0.02730000  0.33730000  0.52310000  1
  H  H105  1  0.33730000  0.02730000  0.52310000  1
  H  H106  1  0.11230000  0.33730000  0.52310000  1
  H  H107  1  0.33730000  0.11230000  0.52310000  1
  H  H108  1  0.05120000  0.13580000  0.52040000  1
  H  H109  1  0.13580000  0.05120000  0.52040000  1
  H  H110  1  0.05120000  0.29260000  0.52040000  1
  H  H111  1  0.29260000  0.05120000  0.52040000  1
  H  H112  1  0.13580000  0.29260000  0.52040000  1
  H  H113  1  0.29260000  0.13580000  0.52040000  1
  H  H114  1  0.00190000  0.08690000  0.51490000  1
  H  H115  1  0.08690000  0.00190000  0.51490000  1
  H  H116  1  0.00190000  0.39630000  0.51490000  1
  H  H117  1  0.39630000  0.00190000  0.51490000  1
  H  H118  1  0.08690000  0.39630000  0.51490000  1
  H  H119  1  0.39630000  0.08690000  0.51490000  1
  H  H120  1  0.60370000  0.91310000  0.48510000  1
  H  H121  1  0.91310000  0.60370000  0.48510000  1
  H  H122  1  0.60370000  0.99810000  0.48510000  1
  H  H123  1  0.99810000  0.60370000  0.48510000  1
  H  H124  1  0.91310000  0.99810000  0.48510000  1
  H  H125  1  0.99810000  0.91310000  0.48510000  1
  H  H126  1  0.70740000  0.86420000  0.47960000  1
  H  H127  1  0.86420000  0.70740000  0.47960000  1
  H  H128  1  0.70740000  0.94880000  0.47960000  1
  H  H129  1  0.94880000  0.70740000  0.47960000  1
  H  H130  1  0.86420000  0.94880000  0.47960000  1
  H  H131  1  0.94880000  0.86420000  0.47960000  1
  H  H132  1  0.66270000  0.88770000  0.47690000  1
  H  H133  1  0.88770000  0.66270000  0.47690000  1
  H  H134  1  0.66270000  0.97270000  0.47690000  1
  H  H135  1  0.97270000  0.66270000  0.47690000  1
  H  H136  1  0.88770000  0.97270000  0.47690000  1
  H  H137  1  0.97270000  0.88770000  0.47690000  1
  H  H138  1  0.76530000  0.83730000  0.47550000  1
  H  H139  1  0.83730000  0.76530000  0.47550000  1
  H  H140  1  0.76530000  0.92190000  0.47550000  1
  H  H141  1  0.92190000  0.76530000  0.47550000  1
  H  H142  1  0.83730000  0.92190000  0.47550000  1
  H  H143  1  0.92190000  0.83730000  0.47550000  1
  H  H144  1  0.81560000  0.81560000  0.46840000  1
  H  H145  1  0.81560000  0.90040000  0.46840000  1
  H  H146  1  0.90040000  0.81560000  0.46840000  1
  H  H147  1  0.00190000  0.08690000  0.39630000  1
  H  H148  1  0.08690000  0.00190000  0.39630000  1
  H  H149  1  0.00190000  0.51490000  0.39630000  1
  H  H150  1  0.51490000  0.00190000  0.39630000  1
  H  H151  1  0.08690000  0.51490000  0.39630000  1
  H  H152  1  0.51490000  0.08690000  0.39630000  1
  H  H153  1  0.02730000  0.11230000  0.33730000  1
  H  H154  1  0.11230000  0.02730000  0.33730000  1
  H  H155  1  0.02730000  0.52310000  0.33730000  1
  H  H156  1  0.52310000  0.02730000  0.33730000  1
  H  H157  1  0.11230000  0.52310000  0.33730000  1
  H  H158  1  0.52310000  0.11230000  0.33730000  1
  H  H159  1  0.05120000  0.13580000  0.29260000  1
  H  H160  1  0.13580000  0.05120000  0.29260000  1
  H  H161  1  0.05120000  0.52040000  0.29260000  1
  H  H162  1  0.52040000  0.05120000  0.29260000  1
  H  H163  1  0.13580000  0.52040000  0.29260000  1
  H  H164  1  0.52040000  0.13580000  0.29260000  1
  H  H165  1  0.07810000  0.16270000  0.23470000  1
  H  H166  1  0.16270000  0.07810000  0.23470000  1
  H  H167  1  0.07810000  0.52450000  0.23470000  1
  H  H168  1  0.52450000  0.07810000  0.23470000  1
  H  H169  1  0.16270000  0.52450000  0.23470000  1
  H  H170  1  0.52450000  0.16270000  0.23470000  1
  H  H171  1  0.09960000  0.18440000  0.18440000  1
  H  H172  1  0.18440000  0.09960000  0.18440000  1
  H  H173  1  0.09960000  0.53160000  0.18440000  1
  H  H174  1  0.53160000  0.09960000  0.18440000  1
  H  H175  1  0.18440000  0.53160000  0.18440000  1
  H  H176  1  0.53160000  0.18440000  0.18440000  1
  H  H177  1  0.07810000  0.23470000  0.16270000  1
  H  H178  1  0.23470000  0.07810000  0.16270000  1
  H  H179  1  0.07810000  0.52450000  0.16270000  1
  H  H180  1  0.52450000  0.07810000  0.16270000  1
  H  H181  1  0.23470000  0.52450000  0.16270000  1
  H  H182  1  0.52450000  0.23470000  0.16270000  1
  H  H183  1  0.05120000  0.29260000  0.13580000  1
  H  H184  1  0.29260000  0.05120000  0.13580000  1
  H  H185  1  0.05120000  0.52040000  0.13580000  1
  H  H186  1  0.52040000  0.05120000  0.13580000  1
  H  H187  1  0.29260000  0.52040000  0.13580000  1
  H  H188  1  0.52040000  0.29260000  0.13580000  1
  H  H189  1  0.02730000  0.33730000  0.11230000  1
  H  H190  1  0.33730000  0.02730000  0.11230000  1
  H  H191  1  0.02730000  0.52310000  0.11230000  1
  H  H192  1  0.52310000  0.02730000  0.11230000  1
  H  H193  1  0.33730000  0.52310000  0.11230000  1
  H  H194  1  0.52310000  0.33730000  0.11230000  1
  H  H195  1  0.18440000  0.18440000  0.09960000  1
  H  H196  1  0.18440000  0.53160000  0.09960000  1
  H  H197  1  0.53160000  0.18440000  0.09960000  1
  H  H198  1  0.00190000  0.39630000  0.08690000  1
  H  H199  1  0.39630000  0.00190000  0.08690000  1
  H  H200  1  0.00190000  0.51490000  0.08690000  1
  H  H201  1  0.51490000  0.00190000  0.08690000  1
  H  H202  1  0.39630000  0.51490000  0.08690000  1
  H  H203  1  0.51490000  0.39630000  0.08690000  1
  H  H204  1  0.16270000  0.23470000  0.07810000  1
  H  H205  1  0.23470000  0.16270000  0.07810000  1
  H  H206  1  0.16270000  0.52450000  0.07810000  1
  H  H207  1  0.52450000  0.16270000  0.07810000  1
  H  H208  1  0.23470000  0.52450000  0.07810000  1
  H  H209  1  0.52450000  0.23470000  0.07810000  1
  H  H210  1  0.13580000  0.29260000  0.05120000  1
  H  H211  1  0.29260000  0.13580000  0.05120000  1
  H  H212  1  0.13580000  0.52040000  0.05120000  1
  H  H213  1  0.52040000  0.13580000  0.05120000  1
  H  H214  1  0.29260000  0.52040000  0.05120000  1
  H  H215  1  0.52040000  0.29260000  0.05120000  1
  H  H216  1  0.11230000  0.33730000  0.02730000  1
  H  H217  1  0.33730000  0.11230000  0.02730000  1
  H  H218  1  0.11230000  0.52310000  0.02730000  1
  H  H219  1  0.52310000  0.11230000  0.02730000  1
  H  H220  1  0.33730000  0.52310000  0.02730000  1
  H  H221  1  0.52310000  0.33730000  0.02730000  1
  H  H222  1  0.08690000  0.39630000  0.00190000  1
  H  H223  1  0.39630000  0.08690000  0.00190000  1
  H  H224  1  0.08690000  0.51490000  0.00190000  1
  H  H225  1  0.51490000  0.08690000  0.00190000  1
  H  H226  1  0.39630000  0.51490000  0.00190000  1
  H  H227  1  0.51490000  0.39630000  0.00190000  1
  C  C228  1  0.48255000  0.61551000  0.97691000  1
  C  C229  1  0.61551000  0.48255000  0.97691000  1
  C  C230  1  0.48255000  0.92503000  0.97691000  1
  C  C231  1  0.92503000  0.48255000  0.97691000  1
  C  C232  1  0.61551000  0.92503000  0.97691000  1
  C  C233  1  0.92503000  0.61551000  0.97691000  1
  C  C234  1  0.49028000  0.56012000  0.97480000  1
  C  C235  1  0.56012000  0.49028000  0.97480000  1
  C  C236  1  0.49028000  0.97480000  0.97480000  1
  C  C237  1  0.97480000  0.49028000  0.97480000  1
  C  C238  1  0.56012000  0.97480000  0.97480000  1
  C  C239  1  0.97480000  0.56012000  0.97480000  1
  C  C240  1  0.47812000  0.65088000  0.96144000  1
  C  C241  1  0.65088000  0.47812000  0.96144000  1
  C  C242  1  0.47812000  0.90956000  0.96144000  1
  C  C243  1  0.90956000  0.47812000  0.96144000  1
  C  C244  1  0.65088000  0.90956000  0.96144000  1
  C  C245  1  0.90956000  0.65088000  0.96144000  1
  C  C246  1  0.48298000  0.59862000  0.95920000  1
  C  C247  1  0.59862000  0.48298000  0.95920000  1
  C  C248  1  0.48298000  0.95920000  0.95920000  1
  C  C249  1  0.95920000  0.48298000  0.95920000  1
  C  C250  1  0.59862000  0.95920000  0.95920000  1
  C  C251  1  0.95920000  0.59862000  0.95920000  1
  C  C252  1  0.47569000  0.66749000  0.92841000  1
  C  C253  1  0.66749000  0.47569000  0.92841000  1
  C  C254  1  0.47569000  0.92841000  0.92841000  1
  C  C255  1  0.92841000  0.47569000  0.92841000  1
  C  C256  1  0.66749000  0.92841000  0.92841000  1
  C  C257  1  0.92841000  0.66749000  0.92841000  1
  C  C258  1  0.47734000  0.71946000  0.92748000  1
  C  C259  1  0.71946000  0.47734000  0.92748000  1
  C  C260  1  0.47734000  0.87572000  0.92748000  1
  C  C261  1  0.87572000  0.47734000  0.92748000  1
  C  C262  1  0.71946000  0.87572000  0.92748000  1
  C  C263  1  0.87572000  0.71946000  0.92748000  1
  C  C264  1  0.48255000  0.61551000  0.92503000  1
  C  C265  1  0.61551000  0.48255000  0.92503000  1
  C  C266  1  0.48255000  0.97691000  0.92503000  1
  C  C267  1  0.97691000  0.48255000  0.92503000  1
  C  C268  1  0.61551000  0.97691000  0.92503000  1
  C  C269  1  0.97691000  0.61551000  0.92503000  1
  C  C270  1  0.47555000  0.75397000  0.91103000  1
  C  C271  1  0.75397000  0.47555000  0.91103000  1
  C  C272  1  0.47555000  0.85945000  0.91103000  1
  C  C273  1  0.85945000  0.47555000  0.91103000  1
  C  C274  1  0.75397000  0.85945000  0.91103000  1
  C  C275  1  0.85945000  0.75397000  0.91103000  1
  C  C276  1  0.47560000  0.70380000  0.91030000  1
  C  C277  1  0.70380000  0.47560000  0.91030000  1
  C  C278  1  0.47560000  0.91030000  0.91030000  1
  C  C279  1  0.91030000  0.47560000  0.91030000  1
  C  C280  1  0.70380000  0.91030000  0.91030000  1
  C  C281  1  0.91030000  0.70380000  0.91030000  1
  C  C282  1  0.47812000  0.65088000  0.90956000  1
  C  C283  1  0.65088000  0.47812000  0.90956000  1
  C  C284  1  0.47812000  0.96144000  0.90956000  1
  C  C285  1  0.96144000  0.47812000  0.90956000  1
  C  C286  1  0.65088000  0.96144000  0.90956000  1
  C  C287  1  0.96144000  0.65088000  0.90956000  1
  C  C288  1  0.46821000  0.82677000  0.87825000  1
  C  C289  1  0.82677000  0.46821000  0.87825000  1
  C  C290  1  0.82677000  0.82677000  0.87825000  1
  C  C291  1  0.47390000  0.77110000  0.87750000  1
  C  C292  1  0.77110000  0.47390000  0.87750000  1
  C  C293  1  0.47390000  0.87750000  0.87750000  1
  C  C294  1  0.87750000  0.47390000  0.87750000  1
  C  C295  1  0.77110000  0.87750000  0.87750000  1
  C  C296  1  0.87750000  0.77110000  0.87750000  1
  C  C297  1  0.47734000  0.71946000  0.87572000  1
  C  C298  1  0.71946000  0.47734000  0.87572000  1
  C  C299  1  0.47734000  0.92748000  0.87572000  1
  C  C300  1  0.92748000  0.47734000  0.87572000  1
  C  C301  1  0.71946000  0.92748000  0.87572000  1
  C  C302  1  0.92748000  0.71946000  0.87572000  1
  C  C303  1  0.46800000  0.80960000  0.86120000  1
  C  C304  1  0.80960000  0.46800000  0.86120000  1
  C  C305  1  0.46800000  0.86120000  0.86120000  1
  C  C306  1  0.86120000  0.46800000  0.86120000  1
  C  C307  1  0.80960000  0.86120000  0.86120000  1
  C  C308  1  0.86120000  0.80960000  0.86120000  1
  C  C309  1  0.47555000  0.75397000  0.85945000  1
  C  C310  1  0.75397000  0.47555000  0.85945000  1
  C  C311  1  0.47555000  0.91103000  0.85945000  1
  C  C312  1  0.91103000  0.47555000  0.85945000  1
  C  C313  1  0.75397000  0.91103000  0.85945000  1
  C  C314  1  0.91103000  0.75397000  0.85945000  1
  C  C315  1  0.46821000  0.82677000  0.82677000  1
  C  C316  1  0.82677000  0.46821000  0.82677000  1
  C  C317  1  0.46821000  0.87825000  0.82677000  1
  C  C318  1  0.87825000  0.46821000  0.82677000  1
  C  C319  1  0.82677000  0.87825000  0.82677000  1
  C  C320  1  0.87825000  0.82677000  0.82677000  1
  C  C321  1  0.46800000  0.86120000  0.80960000  1
  C  C322  1  0.86120000  0.46800000  0.80960000  1
  C  C323  1  0.86120000  0.86120000  0.80960000  1
  C  C324  1  0.47390000  0.87750000  0.77110000  1
  C  C325  1  0.87750000  0.47390000  0.77110000  1
  C  C326  1  0.87750000  0.87750000  0.77110000  1
  C  C327  1  0.47555000  0.85945000  0.75397000  1
  C  C328  1  0.85945000  0.47555000  0.75397000  1
  C  C329  1  0.47555000  0.91103000  0.75397000  1
  C  C330  1  0.91103000  0.47555000  0.75397000  1
  C  C331  1  0.85945000  0.91103000  0.75397000  1
  C  C332  1  0.91103000  0.85945000  0.75397000  1
  C  C333  1  0.47734000  0.87572000  0.71946000  1
  C  C334  1  0.87572000  0.47734000  0.71946000  1
  C  C335  1  0.47734000  0.92748000  0.71946000  1
  C  C336  1  0.92748000  0.47734000  0.71946000  1
  C  C337  1  0.87572000  0.92748000  0.71946000  1
  C  C338  1  0.92748000  0.87572000  0.71946000  1
  C  C339  1  0.47560000  0.91030000  0.70380000  1
  C  C340  1  0.91030000  0.47560000  0.70380000  1
  C  C341  1  0.91030000  0.91030000  0.70380000  1
  C  C342  1  0.47569000  0.92841000  0.66749000  1
  C  C343  1  0.92841000  0.47569000  0.66749000  1
  C  C344  1  0.92841000  0.92841000  0.66749000  1
  C  C345  1  0.47812000  0.90956000  0.65088000  1
  C  C346  1  0.90956000  0.47812000  0.65088000  1
  C  C347  1  0.47812000  0.96144000  0.65088000  1
  C  C348  1  0.96144000  0.47812000  0.65088000  1
  C  C349  1  0.90956000  0.96144000  0.65088000  1
  C  C350  1  0.96144000  0.90956000  0.65088000  1
  C  C351  1  0.48255000  0.92503000  0.61551000  1
  C  C352  1  0.92503000  0.48255000  0.61551000  1
  C  C353  1  0.48255000  0.97691000  0.61551000  1
  C  C354  1  0.97691000  0.48255000  0.61551000  1
  C  C355  1  0.92503000  0.97691000  0.61551000  1
  C  C356  1  0.97691000  0.92503000  0.61551000  1
  C  C357  1  0.48298000  0.95920000  0.59862000  1
  C  C358  1  0.95920000  0.48298000  0.59862000  1
  C  C359  1  0.95920000  0.95920000  0.59862000  1
  C  C360  1  0.49028000  0.97480000  0.56012000  1
  C  C361  1  0.97480000  0.49028000  0.56012000  1
  C  C362  1  0.97480000  0.97480000  0.56012000  1
  C  C363  1  0.13880000  0.13880000  0.53200000  1
  C  C364  1  0.13880000  0.19040000  0.53200000  1
  C  C365  1  0.19040000  0.13880000  0.53200000  1
  C  C366  1  0.12175000  0.17323000  0.53179000  1
  C  C367  1  0.17323000  0.12175000  0.53179000  1
  C  C368  1  0.17323000  0.17323000  0.53179000  1
  C  C369  1  0.12250000  0.12250000  0.52610000  1
  C  C370  1  0.12250000  0.22890000  0.52610000  1
  C  C371  1  0.22890000  0.12250000  0.52610000  1
  C  C372  1  0.08897000  0.14055000  0.52445000  1
  C  C373  1  0.14055000  0.08897000  0.52445000  1
  C  C374  1  0.08897000  0.24603000  0.52445000  1
  C  C375  1  0.24603000  0.08897000  0.52445000  1
  C  C376  1  0.14055000  0.24603000  0.52445000  1
  C  C377  1  0.24603000  0.14055000  0.52445000  1
  C  C378  1  0.08970000  0.08970000  0.52440000  1
  C  C379  1  0.08970000  0.29620000  0.52440000  1
  C  C380  1  0.29620000  0.08970000  0.52440000  1
  C  C381  1  0.07159000  0.07159000  0.52431000  1
  C  C382  1  0.07159000  0.33251000  0.52431000  1
  C  C383  1  0.33251000  0.07159000  0.52431000  1
  C  C384  1  0.07252000  0.12428000  0.52266000  1
  C  C385  1  0.12428000  0.07252000  0.52266000  1
  C  C386  1  0.07252000  0.28054000  0.52266000  1
  C  C387  1  0.28054000  0.07252000  0.52266000  1
  C  C388  1  0.12428000  0.28054000  0.52266000  1
  C  C389  1  0.28054000  0.12428000  0.52266000  1
  C  C390  1  0.03856000  0.09044000  0.52188000  1
  C  C391  1  0.09044000  0.03856000  0.52188000  1
  C  C392  1  0.03856000  0.34912000  0.52188000  1
  C  C393  1  0.34912000  0.03856000  0.52188000  1
  C  C394  1  0.09044000  0.34912000  0.52188000  1
  C  C395  1  0.34912000  0.09044000  0.52188000  1
  C  C396  1  0.02309000  0.07497000  0.51745000  1
  C  C397  1  0.07497000  0.02309000  0.51745000  1
  C  C398  1  0.02309000  0.38449000  0.51745000  1
  C  C399  1  0.38449000  0.02309000  0.51745000  1
  C  C400  1  0.07497000  0.38449000  0.51745000  1
  C  C401  1  0.38449000  0.07497000  0.51745000  1
  C  C402  1  0.04080000  0.04080000  0.51702000  1
  C  C403  1  0.04080000  0.40138000  0.51702000  1
  C  C404  1  0.40138000  0.04080000  0.51702000  1
  C  C405  1  0.02520000  0.02520000  0.50972000  1
  C  C406  1  0.02520000  0.43988000  0.50972000  1
  C  C407  1  0.43988000  0.02520000  0.50972000  1
  C  C408  1  0.56012000  0.97480000  0.49028000  1
  C  C409  1  0.97480000  0.56012000  0.49028000  1
  C  C410  1  0.97480000  0.97480000  0.49028000  1
  C  C411  1  0.59862000  0.95920000  0.48298000  1
  C  C412  1  0.95920000  0.59862000  0.48298000  1
  C  C413  1  0.95920000  0.95920000  0.48298000  1
  C  C414  1  0.61551000  0.92503000  0.48255000  1
  C  C415  1  0.92503000  0.61551000  0.48255000  1
  C  C416  1  0.61551000  0.97691000  0.48255000  1
  C  C417  1  0.97691000  0.61551000  0.48255000  1
  C  C418  1  0.92503000  0.97691000  0.48255000  1
  C  C419  1  0.97691000  0.92503000  0.48255000  1
  C  C420  1  0.65088000  0.90956000  0.47812000  1
  C  C421  1  0.90956000  0.65088000  0.47812000  1
  C  C422  1  0.65088000  0.96144000  0.47812000  1
  C  C423  1  0.96144000  0.65088000  0.47812000  1
  C  C424  1  0.90956000  0.96144000  0.47812000  1
  C  C425  1  0.96144000  0.90956000  0.47812000  1
  C  C426  1  0.71946000  0.87572000  0.47734000  1
  C  C427  1  0.87572000  0.71946000  0.47734000  1
  C  C428  1  0.71946000  0.92748000  0.47734000  1
  C  C429  1  0.92748000  0.71946000  0.47734000  1
  C  C430  1  0.87572000  0.92748000  0.47734000  1
  C  C431  1  0.92748000  0.87572000  0.47734000  1
  C  C432  1  0.66749000  0.92841000  0.47569000  1
  C  C433  1  0.92841000  0.66749000  0.47569000  1
  C  C434  1  0.92841000  0.92841000  0.47569000  1
  C  C435  1  0.70380000  0.91030000  0.47560000  1
  C  C436  1  0.91030000  0.70380000  0.47560000  1
  C  C437  1  0.91030000  0.91030000  0.47560000  1
  C  C438  1  0.75397000  0.85945000  0.47555000  1
  C  C439  1  0.85945000  0.75397000  0.47555000  1
  C  C440  1  0.75397000  0.91103000  0.47555000  1
  C  C441  1  0.91103000  0.75397000  0.47555000  1
  C  C442  1  0.85945000  0.91103000  0.47555000  1
  C  C443  1  0.91103000  0.85945000  0.47555000  1
  C  C444  1  0.77110000  0.87750000  0.47390000  1
  C  C445  1  0.87750000  0.77110000  0.47390000  1
  C  C446  1  0.87750000  0.87750000  0.47390000  1
  C  C447  1  0.82677000  0.82677000  0.46821000  1
  C  C448  1  0.82677000  0.87825000  0.46821000  1
  C  C449  1  0.87825000  0.82677000  0.46821000  1
  C  C450  1  0.80960000  0.86120000  0.46800000  1
  C  C451  1  0.86120000  0.80960000  0.46800000  1
  C  C452  1  0.86120000  0.86120000  0.46800000  1
  C  C453  1  0.02520000  0.02520000  0.43988000  1
  C  C454  1  0.02520000  0.50972000  0.43988000  1
  C  C455  1  0.50972000  0.02520000  0.43988000  1
  C  C456  1  0.04080000  0.04080000  0.40138000  1
  C  C457  1  0.04080000  0.51702000  0.40138000  1
  C  C458  1  0.51702000  0.04080000  0.40138000  1
  C  C459  1  0.02309000  0.07497000  0.38449000  1
  C  C460  1  0.07497000  0.02309000  0.38449000  1
  C  C461  1  0.02309000  0.51745000  0.38449000  1
  C  C462  1  0.51745000  0.02309000  0.38449000  1
  C  C463  1  0.07497000  0.51745000  0.38449000  1
  C  C464  1  0.51745000  0.07497000  0.38449000  1
  C  C465  1  0.03856000  0.09044000  0.34912000  1
  C  C466  1  0.09044000  0.03856000  0.34912000  1
  C  C467  1  0.03856000  0.52188000  0.34912000  1
  C  C468  1  0.52188000  0.03856000  0.34912000  1
  C  C469  1  0.09044000  0.52188000  0.34912000  1
  C  C470  1  0.52188000  0.09044000  0.34912000  1
  C  C471  1  0.07159000  0.07159000  0.33251000  1
  C  C472  1  0.07159000  0.52431000  0.33251000  1
  C  C473  1  0.52431000  0.07159000  0.33251000  1
  C  C474  1  0.08970000  0.08970000  0.29620000  1
  C  C475  1  0.08970000  0.52440000  0.29620000  1
  C  C476  1  0.52440000  0.08970000  0.29620000  1
  C  C477  1  0.07252000  0.12428000  0.28054000  1
  C  C478  1  0.12428000  0.07252000  0.28054000  1
  C  C479  1  0.07252000  0.52266000  0.28054000  1
  C  C480  1  0.52266000  0.07252000  0.28054000  1
  C  C481  1  0.12428000  0.52266000  0.28054000  1
  C  C482  1  0.52266000  0.12428000  0.28054000  1
  C  C483  1  0.08897000  0.14055000  0.24603000  1
  C  C484  1  0.14055000  0.08897000  0.24603000  1
  C  C485  1  0.08897000  0.52445000  0.24603000  1
  C  C486  1  0.52445000  0.08897000  0.24603000  1
  C  C487  1  0.14055000  0.52445000  0.24603000  1
  C  C488  1  0.52445000  0.14055000  0.24603000  1
  C  C489  1  0.12250000  0.12250000  0.22890000  1
  C  C490  1  0.12250000  0.52610000  0.22890000  1
  C  C491  1  0.52610000  0.12250000  0.22890000  1
  C  C492  1  0.13880000  0.13880000  0.19040000  1
  C  C493  1  0.13880000  0.53200000  0.19040000  1
  C  C494  1  0.53200000  0.13880000  0.19040000  1
  C  C495  1  0.12175000  0.17323000  0.17323000  1
  C  C496  1  0.17323000  0.12175000  0.17323000  1
  C  C497  1  0.12175000  0.53179000  0.17323000  1
  C  C498  1  0.53179000  0.12175000  0.17323000  1
  C  C499  1  0.17323000  0.53179000  0.17323000  1
  C  C500  1  0.53179000  0.17323000  0.17323000  1
  C  C501  1  0.08897000  0.24603000  0.14055000  1
  C  C502  1  0.24603000  0.08897000  0.14055000  1
  C  C503  1  0.08897000  0.52445000  0.14055000  1
  C  C504  1  0.52445000  0.08897000  0.14055000  1
  C  C505  1  0.24603000  0.52445000  0.14055000  1
  C  C506  1  0.52445000  0.24603000  0.14055000  1
  C  C507  1  0.13880000  0.19040000  0.13880000  1
  C  C508  1  0.19040000  0.13880000  0.13880000  1
  C  C509  1  0.13880000  0.53200000  0.13880000  1
  C  C510  1  0.53200000  0.13880000  0.13880000  1
  C  C511  1  0.19040000  0.53200000  0.13880000  1
  C  C512  1  0.53200000  0.19040000  0.13880000  1
  C  C513  1  0.07252000  0.28054000  0.12428000  1
  C  C514  1  0.28054000  0.07252000  0.12428000  1
  C  C515  1  0.07252000  0.52266000  0.12428000  1
  C  C516  1  0.52266000  0.07252000  0.12428000  1
  C  C517  1  0.28054000  0.52266000  0.12428000  1
  C  C518  1  0.52266000  0.28054000  0.12428000  1
  C  C519  1  0.12250000  0.22890000  0.12250000  1
  C  C520  1  0.22890000  0.12250000  0.12250000  1
  C  C521  1  0.12250000  0.52610000  0.12250000  1
  C  C522  1  0.52610000  0.12250000  0.12250000  1
  C  C523  1  0.22890000  0.52610000  0.12250000  1
  C  C524  1  0.52610000  0.22890000  0.12250000  1
  C  C525  1  0.17323000  0.17323000  0.12175000  1
  C  C526  1  0.17323000  0.53179000  0.12175000  1
  C  C527  1  0.53179000  0.17323000  0.12175000  1
  C  C528  1  0.03856000  0.34912000  0.09044000  1
  C  C529  1  0.34912000  0.03856000  0.09044000  1
  C  C530  1  0.03856000  0.52188000  0.09044000  1
  C  C531  1  0.52188000  0.03856000  0.09044000  1
  C  C532  1  0.34912000  0.52188000  0.09044000  1
  C  C533  1  0.52188000  0.34912000  0.09044000  1
  C  C534  1  0.08970000  0.29620000  0.08970000  1
  C  C535  1  0.29620000  0.08970000  0.08970000  1
  C  C536  1  0.08970000  0.52440000  0.08970000  1
  C  C537  1  0.52440000  0.08970000  0.08970000  1
  C  C538  1  0.29620000  0.52440000  0.08970000  1
  C  C539  1  0.52440000  0.29620000  0.08970000  1
  C  C540  1  0.14055000  0.24603000  0.08897000  1
  C  C541  1  0.24603000  0.14055000  0.08897000  1
  C  C542  1  0.14055000  0.52445000  0.08897000  1
  C  C543  1  0.52445000  0.14055000  0.08897000  1
  C  C544  1  0.24603000  0.52445000  0.08897000  1
  C  C545  1  0.52445000  0.24603000  0.08897000  1
  C  C546  1  0.02309000  0.38449000  0.07497000  1
  C  C547  1  0.38449000  0.02309000  0.07497000  1
  C  C548  1  0.02309000  0.51745000  0.07497000  1
  C  C549  1  0.51745000  0.02309000  0.07497000  1
  C  C550  1  0.38449000  0.51745000  0.07497000  1
  C  C551  1  0.51745000  0.38449000  0.07497000  1
  C  C552  1  0.12428000  0.28054000  0.07252000  1
  C  C553  1  0.28054000  0.12428000  0.07252000  1
  C  C554  1  0.12428000  0.52266000  0.07252000  1
  C  C555  1  0.52266000  0.12428000  0.07252000  1
  C  C556  1  0.28054000  0.52266000  0.07252000  1
  C  C557  1  0.52266000  0.28054000  0.07252000  1
  C  C558  1  0.07159000  0.33251000  0.07159000  1
  C  C559  1  0.33251000  0.07159000  0.07159000  1
  C  C560  1  0.07159000  0.52431000  0.07159000  1
  C  C561  1  0.52431000  0.07159000  0.07159000  1
  C  C562  1  0.33251000  0.52431000  0.07159000  1
  C  C563  1  0.52431000  0.33251000  0.07159000  1
  C  C564  1  0.04080000  0.40138000  0.04080000  1
  C  C565  1  0.40138000  0.04080000  0.04080000  1
  C  C566  1  0.04080000  0.51702000  0.04080000  1
  C  C567  1  0.51702000  0.04080000  0.04080000  1
  C  C568  1  0.40138000  0.51702000  0.04080000  1
  C  C569  1  0.51702000  0.40138000  0.04080000  1
  C  C570  1  0.09044000  0.34912000  0.03856000  1
  C  C571  1  0.34912000  0.09044000  0.03856000  1
  C  C572  1  0.09044000  0.52188000  0.03856000  1
  C  C573  1  0.52188000  0.09044000  0.03856000  1
  C  C574  1  0.34912000  0.52188000  0.03856000  1
  C  C575  1  0.52188000  0.34912000  0.03856000  1
  C  C576  1  0.02520000  0.43988000  0.02520000  1
  C  C577  1  0.43988000  0.02520000  0.02520000  1
  C  C578  1  0.02520000  0.50972000  0.02520000  1
  C  C579  1  0.50972000  0.02520000  0.02520000  1
  C  C580  1  0.43988000  0.50972000  0.02520000  1
  C  C581  1  0.50972000  0.43988000  0.02520000  1
  C  C582  1  0.07497000  0.38449000  0.02309000  1
  C  C583  1  0.38449000  0.07497000  0.02309000  1
  C  C584  1  0.07497000  0.51745000  0.02309000  1
  C  C585  1  0.51745000  0.07497000  0.02309000  1
  C  C586  1  0.38449000  0.51745000  0.02309000  1
  C  C587  1  0.51745000  0.38449000  0.02309000  1
  O  O588  1  0.04285000  0.45251000  0.99603000  1
  O  O589  1  0.45251000  0.04285000  0.99603000  1
  O  O590  1  0.04285000  0.50861000  0.99603000  1
  O  O591  1  0.50861000  0.04285000  0.99603000  1
  O  O592  1  0.45251000  0.50861000  0.99603000  1
  O  O593  1  0.50861000  0.45251000  0.99603000  1
  O  O594  1  0.00397000  0.49139000  0.95715000  1
  O  O595  1  0.49139000  0.00397000  0.95715000  1
  O  O596  1  0.00397000  0.54749000  0.95715000  1
  O  O597  1  0.54749000  0.00397000  0.95715000  1
  O  O598  1  0.49139000  0.54749000  0.95715000  1
  O  O599  1  0.54749000  0.49139000  0.95715000  1
  O  O600  1  0.00397000  0.49139000  0.54749000  1
  O  O601  1  0.49139000  0.00397000  0.54749000  1
  O  O602  1  0.00397000  0.95715000  0.54749000  1
  O  O603  1  0.95715000  0.00397000  0.54749000  1
  O  O604  1  0.49139000  0.95715000  0.54749000  1
  O  O605  1  0.95715000  0.49139000  0.54749000  1
  O  O606  1  0.04285000  0.45251000  0.50861000  1
  O  O607  1  0.45251000  0.04285000  0.50861000  1
  O  O608  1  0.04285000  0.99603000  0.50861000  1
  O  O609  1  0.99603000  0.04285000  0.50861000  1
  O  O610  1  0.45251000  0.99603000  0.50861000  1
  O  O611  1  0.99603000  0.45251000  0.50861000  1
  O  O612  1  0.00397000  0.54749000  0.49139000  1
  O  O613  1  0.54749000  0.00397000  0.49139000  1
  O  O614  1  0.00397000  0.95715000  0.49139000  1
  O  O615  1  0.95715000  0.00397000  0.49139000  1
  O  O616  1  0.54749000  0.95715000  0.49139000  1
  O  O617  1  0.95715000  0.54749000  0.49139000  1
  O  O618  1  0.04285000  0.50861000  0.45251000  1
  O  O619  1  0.50861000  0.04285000  0.45251000  1
  O  O620  1  0.04285000  0.99603000  0.45251000  1
  O  O621  1  0.99603000  0.04285000  0.45251000  1
  O  O622  1  0.50861000  0.99603000  0.45251000  1
  O  O623  1  0.99603000  0.50861000  0.45251000  1
  O  O624  1  0.45251000  0.50861000  0.04285000  1
  O  O625  1  0.50861000  0.45251000  0.04285000  1
  O  O626  1  0.45251000  0.99603000  0.04285000  1
  O  O627  1  0.99603000  0.45251000  0.04285000  1
  O  O628  1  0.50861000  0.99603000  0.04285000  1
  O  O629  1  0.99603000  0.50861000  0.04285000  1
  O  O630  1  0.49139000  0.54749000  0.00397000  1
  O  O631  1  0.54749000  0.49139000  0.00397000  1
  O  O632  1  0.49139000  0.95715000  0.00397000  1
  O  O633  1  0.95715000  0.49139000  0.00397000  1
  O  O634  1  0.54749000  0.95715000  0.00397000  1
  O  O635  1  0.95715000  0.54749000  0.00397000  1
