# generated using pymatgen
data_ZnH9C13O4
_symmetry_space_group_name_H-M   'P 1'
_cell_length_a   19.40320000
_cell_length_b   19.40320000
_cell_length_c   26.78700000
_cell_angle_alpha   90.00000000
_cell_angle_beta   90.00000000
_cell_angle_gamma   90.00000000
_symmetry_Int_Tables_number   1
_chemical_formula_structural   ZnH9C13O4
_chemical_formula_sum   'Zn16 H144 C208 O64'
_cell_volume   10084.88146822
_cell_formula_units_Z   16
loop_
 _symmetry_equiv_pos_site_id
 _symmetry_equiv_pos_as_xyz
  1  'x, y, z'
loop_
 _atom_site_type_symbol
 _atom_site_label
 _atom_site_symmetry_multiplicity
 _atom_site_fract_x
 _atom_site_fract_y
 _atom_site_fract_z
 _atom_site_occupancy
  Zn  Zn0  1  0.04185000  0.54185000  0.96478000  1
  Zn  Zn1  1  0.04185000  0.95815000  0.53522000  1
  Zn  Zn2  1  0.17363000  0.25000000  0.25000000  1
  Zn  Zn3  1  0.25000000  0.17363000  0.75000000  1
  Zn  Zn4  1  0.25000000  0.32637000  0.75000000  1
  Zn  Zn5  1  0.32637000  0.25000000  0.25000000  1
  Zn  Zn6  1  0.45815000  0.54185000  0.53522000  1
  Zn  Zn7  1  0.45815000  0.95815000  0.96478000  1
  Zn  Zn8  1  0.54185000  0.04185000  0.03522000  1
  Zn  Zn9  1  0.54185000  0.45815000  0.46478000  1
  Zn  Zn10  1  0.67363000  0.75000000  0.75000000  1
  Zn  Zn11  1  0.75000000  0.67363000  0.25000000  1
  Zn  Zn12  1  0.75000000  0.82637000  0.25000000  1
  Zn  Zn13  1  0.82637000  0.75000000  0.75000000  1
  Zn  Zn14  1  0.95815000  0.04185000  0.46478000  1
  Zn  Zn15  1  0.95815000  0.45815000  0.03522000  1
  H  H16  1  0.01850000  0.61430000  0.49360000  1
  H  H17  1  0.01850000  0.88570000  0.00640000  1
  H  H18  1  0.02300000  0.06500000  0.95830000  1
  H  H19  1  0.02300000  0.43500000  0.54170000  1
  H  H20  1  0.03070000  0.14510000  0.95280000  1
  H  H21  1  0.03070000  0.35490000  0.54720000  1
  H  H22  1  0.05110000  0.72130000  0.05960000  1
  H  H23  1  0.05110000  0.77870000  0.44040000  1
  H  H24  1  0.05480000  0.17210000  0.83850000  1
  H  H25  1  0.05480000  0.32790000  0.66150000  1
  H  H26  1  0.06500000  0.02300000  0.04170000  1
  H  H27  1  0.06500000  0.47700000  0.45830000  1
  H  H28  1  0.09190000  0.73680000  0.17000000  1
  H  H29  1  0.09190000  0.76320000  0.33000000  1
  H  H30  1  0.09900000  0.71110000  0.28560000  1
  H  H31  1  0.09900000  0.78890000  0.21440000  1
  H  H32  1  0.11430000  0.51850000  0.49360000  1
  H  H33  1  0.11430000  0.98150000  0.00640000  1
  H  H34  1  0.11770000  0.13700000  0.62290000  1
  H  H35  1  0.11770000  0.36300000  0.87710000  1
  H  H36  1  0.13700000  0.11770000  0.37710000  1
  H  H37  1  0.13700000  0.38230000  0.12290000  1
  H  H38  1  0.14510000  0.03070000  0.04720000  1
  H  H39  1  0.14510000  0.46930000  0.45280000  1
  H  H40  1  0.16510000  0.74000000  0.31180000  1
  H  H41  1  0.16510000  0.76000000  0.18820000  1
  H  H42  1  0.17210000  0.05480000  0.16150000  1
  H  H43  1  0.17210000  0.44520000  0.33850000  1
  H  H44  1  0.21110000  0.59900000  0.28560000  1
  H  H45  1  0.21110000  0.90100000  0.21440000  1
  H  H46  1  0.22130000  0.55110000  0.05960000  1
  H  H47  1  0.22130000  0.94890000  0.44040000  1
  H  H48  1  0.23680000  0.59190000  0.17000000  1
  H  H49  1  0.23680000  0.90810000  0.33000000  1
  H  H50  1  0.24000000  0.66510000  0.31180000  1
  H  H51  1  0.24000000  0.83490000  0.18820000  1
  H  H52  1  0.26000000  0.66510000  0.18820000  1
  H  H53  1  0.26000000  0.83490000  0.31180000  1
  H  H54  1  0.26320000  0.59190000  0.33000000  1
  H  H55  1  0.26320000  0.90810000  0.17000000  1
  H  H56  1  0.27870000  0.55110000  0.44040000  1
  H  H57  1  0.27870000  0.94890000  0.05960000  1
  H  H58  1  0.28890000  0.59900000  0.21440000  1
  H  H59  1  0.28890000  0.90100000  0.28560000  1
  H  H60  1  0.32790000  0.05480000  0.33850000  1
  H  H61  1  0.32790000  0.44520000  0.16150000  1
  H  H62  1  0.33490000  0.74000000  0.18820000  1
  H  H63  1  0.33490000  0.76000000  0.31180000  1
  H  H64  1  0.35490000  0.03070000  0.45280000  1
  H  H65  1  0.35490000  0.46930000  0.04720000  1
  H  H66  1  0.36300000  0.11770000  0.12290000  1
  H  H67  1  0.36300000  0.38230000  0.37710000  1
  H  H68  1  0.38230000  0.13700000  0.87710000  1
  H  H69  1  0.38230000  0.36300000  0.62290000  1
  H  H70  1  0.38570000  0.51850000  0.00640000  1
  H  H71  1  0.38570000  0.98150000  0.49360000  1
  H  H72  1  0.40100000  0.71110000  0.21440000  1
  H  H73  1  0.40100000  0.78890000  0.28560000  1
  H  H74  1  0.40810000  0.73680000  0.33000000  1
  H  H75  1  0.40810000  0.76320000  0.17000000  1
  H  H76  1  0.43500000  0.02300000  0.45830000  1
  H  H77  1  0.43500000  0.47700000  0.04170000  1
  H  H78  1  0.44520000  0.17210000  0.66150000  1
  H  H79  1  0.44520000  0.32790000  0.83850000  1
  H  H80  1  0.44890000  0.72130000  0.44040000  1
  H  H81  1  0.44890000  0.77870000  0.05960000  1
  H  H82  1  0.46930000  0.14510000  0.54720000  1
  H  H83  1  0.46930000  0.35490000  0.95280000  1
  H  H84  1  0.47700000  0.06500000  0.54170000  1
  H  H85  1  0.47700000  0.43500000  0.95830000  1
  H  H86  1  0.48150000  0.61430000  0.00640000  1
  H  H87  1  0.48150000  0.88570000  0.49360000  1
  H  H88  1  0.51850000  0.11430000  0.50640000  1
  H  H89  1  0.51850000  0.38570000  0.99360000  1
  H  H90  1  0.52300000  0.56500000  0.04170000  1
  H  H91  1  0.52300000  0.93500000  0.45830000  1
  H  H92  1  0.53070000  0.64510000  0.04720000  1
  H  H93  1  0.53070000  0.85490000  0.45280000  1
  H  H94  1  0.55110000  0.22130000  0.94040000  1
  H  H95  1  0.55110000  0.27870000  0.55960000  1
  H  H96  1  0.55480000  0.67210000  0.16150000  1
  H  H97  1  0.55480000  0.82790000  0.33850000  1
  H  H98  1  0.56500000  0.52300000  0.95830000  1
  H  H99  1  0.56500000  0.97700000  0.54170000  1
  H  H100  1  0.59190000  0.23680000  0.83000000  1
  H  H101  1  0.59190000  0.26320000  0.67000000  1
  H  H102  1  0.59900000  0.21110000  0.71440000  1
  H  H103  1  0.59900000  0.28890000  0.78560000  1
  H  H104  1  0.61430000  0.01850000  0.50640000  1
  H  H105  1  0.61430000  0.48150000  0.99360000  1
  H  H106  1  0.61770000  0.63700000  0.37710000  1
  H  H107  1  0.61770000  0.86300000  0.12290000  1
  H  H108  1  0.63700000  0.61770000  0.62290000  1
  H  H109  1  0.63700000  0.88230000  0.87710000  1
  H  H110  1  0.64510000  0.53070000  0.95280000  1
  H  H111  1  0.64510000  0.96930000  0.54720000  1
  H  H112  1  0.66510000  0.24000000  0.68820000  1
  H  H113  1  0.66510000  0.26000000  0.81180000  1
  H  H114  1  0.67210000  0.55480000  0.83850000  1
  H  H115  1  0.67210000  0.94520000  0.66150000  1
  H  H116  1  0.71110000  0.09900000  0.71440000  1
  H  H117  1  0.71110000  0.40100000  0.78560000  1
  H  H118  1  0.72130000  0.05110000  0.94040000  1
  H  H119  1  0.72130000  0.44890000  0.55960000  1
  H  H120  1  0.73680000  0.09190000  0.83000000  1
  H  H121  1  0.73680000  0.40810000  0.67000000  1
  H  H122  1  0.74000000  0.16510000  0.68820000  1
  H  H123  1  0.74000000  0.33490000  0.81180000  1
  H  H124  1  0.76000000  0.16510000  0.81180000  1
  H  H125  1  0.76000000  0.33490000  0.68820000  1
  H  H126  1  0.76320000  0.09190000  0.67000000  1
  H  H127  1  0.76320000  0.40810000  0.83000000  1
  H  H128  1  0.77870000  0.05110000  0.55960000  1
  H  H129  1  0.77870000  0.44890000  0.94040000  1
  H  H130  1  0.78890000  0.09900000  0.78560000  1
  H  H131  1  0.78890000  0.40100000  0.71440000  1
  H  H132  1  0.82790000  0.55480000  0.66150000  1
  H  H133  1  0.82790000  0.94520000  0.83850000  1
  H  H134  1  0.83490000  0.24000000  0.81180000  1
  H  H135  1  0.83490000  0.26000000  0.68820000  1
  H  H136  1  0.85490000  0.53070000  0.54720000  1
  H  H137  1  0.85490000  0.96930000  0.95280000  1
  H  H138  1  0.86300000  0.61770000  0.87710000  1
  H  H139  1  0.86300000  0.88230000  0.62290000  1
  H  H140  1  0.88230000  0.63700000  0.12290000  1
  H  H141  1  0.88230000  0.86300000  0.37710000  1
  H  H142  1  0.88570000  0.01850000  0.99360000  1
  H  H143  1  0.88570000  0.48150000  0.50640000  1
  H  H144  1  0.90100000  0.21110000  0.78560000  1
  H  H145  1  0.90100000  0.28890000  0.71440000  1
  H  H146  1  0.90810000  0.23680000  0.67000000  1
  H  H147  1  0.90810000  0.26320000  0.83000000  1
  H  H148  1  0.93500000  0.52300000  0.54170000  1
  H  H149  1  0.93500000  0.97700000  0.95830000  1
  H  H150  1  0.94520000  0.67210000  0.33850000  1
  H  H151  1  0.94520000  0.82790000  0.16150000  1
  H  H152  1  0.94890000  0.22130000  0.55960000  1
  H  H153  1  0.94890000  0.27870000  0.94040000  1
  H  H154  1  0.96930000  0.64510000  0.45280000  1
  H  H155  1  0.96930000  0.85490000  0.04720000  1
  H  H156  1  0.97700000  0.56500000  0.45830000  1
  H  H157  1  0.97700000  0.93500000  0.04170000  1
  H  H158  1  0.98150000  0.11430000  0.99360000  1
  H  H159  1  0.98150000  0.38570000  0.50640000  1
  C  C160  1  0.00070000  0.60830000  0.46040000  1
  C  C161  1  0.00070000  0.89170000  0.03960000  1
  C  C162  1  0.00810000  0.71860000  0.38750000  1
  C  C163  1  0.00810000  0.78140000  0.11250000  1
  C  C164  1  0.01510000  0.72410000  0.08250000  1
  C  C165  1  0.01510000  0.77590000  0.41750000  1
  C  C166  1  0.02440000  0.10650000  0.55370000  1
  C  C167  1  0.02440000  0.39350000  0.94630000  1
  C  C168  1  0.03370000  0.16870000  0.58680000  1
  C  C169  1  0.03370000  0.33130000  0.91320000  1
  C  C170  1  0.04850000  0.21280000  0.85630000  1
  C  C171  1  0.04850000  0.28720000  0.64370000  1
  C  C172  1  0.05920000  0.60920000  0.42370000  1
  C  C173  1  0.05920000  0.89080000  0.07630000  1
  C  C174  1  0.06360000  0.66350000  0.38820000  1
  C  C175  1  0.06360000  0.83650000  0.11180000  1
  C  C176  1  0.08690000  0.17340000  0.61960000  1
  C  C177  1  0.08690000  0.32660000  0.88040000  1
  C  C178  1  0.09540000  0.23510000  0.64940000  1
  C  C179  1  0.09540000  0.26490000  0.85060000  1
  C  C180  1  0.10650000  0.02440000  0.44630000  1
  C  C181  1  0.10650000  0.47560000  0.05370000  1
  C  C182  1  0.10830000  0.50070000  0.46040000  1
  C  C183  1  0.10830000  0.99930000  0.03960000  1
  C  C184  1  0.10920000  0.55920000  0.42370000  1
  C  C185  1  0.10920000  0.94080000  0.07630000  1
  C  C186  1  0.11670000  0.66510000  0.35390000  1
  C  C187  1  0.11670000  0.83490000  0.14610000  1
  C  C188  1  0.11830000  0.72550000  0.31680000  1
  C  C189  1  0.11830000  0.77450000  0.18320000  1
  C  C190  1  0.15530000  0.24140000  0.68400000  1
  C  C191  1  0.15530000  0.25860000  0.81600000  1
  C  C192  1  0.16350000  0.56360000  0.38820000  1
  C  C193  1  0.16350000  0.93640000  0.11180000  1
  C  C194  1  0.16510000  0.61670000  0.35390000  1
  C  C195  1  0.16510000  0.88330000  0.14610000  1
  C  C196  1  0.16870000  0.03370000  0.41320000  1
  C  C197  1  0.16870000  0.46630000  0.08680000  1
  C  C198  1  0.17340000  0.08690000  0.38040000  1
  C  C199  1  0.17340000  0.41310000  0.11960000  1
  C  C200  1  0.21280000  0.04850000  0.14370000  1
  C  C201  1  0.21280000  0.45150000  0.35630000  1
  C  C202  1  0.21860000  0.50810000  0.38750000  1
  C  C203  1  0.21860000  0.99190000  0.11250000  1
  C  C204  1  0.22410000  0.51510000  0.08250000  1
  C  C205  1  0.22410000  0.98490000  0.41750000  1
  C  C206  1  0.22550000  0.61830000  0.31680000  1
  C  C207  1  0.22550000  0.88170000  0.18320000  1
  C  C208  1  0.23510000  0.09540000  0.35060000  1
  C  C209  1  0.23510000  0.40460000  0.14940000  1
  C  C210  1  0.24140000  0.15530000  0.31600000  1
  C  C211  1  0.24140000  0.34470000  0.18400000  1
  C  C212  1  0.25860000  0.15530000  0.18400000  1
  C  C213  1  0.25860000  0.34470000  0.31600000  1
  C  C214  1  0.26490000  0.09540000  0.14940000  1
  C  C215  1  0.26490000  0.40460000  0.35060000  1
  C  C216  1  0.27450000  0.61830000  0.18320000  1
  C  C217  1  0.27450000  0.88170000  0.31680000  1
  C  C218  1  0.27590000  0.51510000  0.41750000  1
  C  C219  1  0.27590000  0.98490000  0.08250000  1
  C  C220  1  0.28140000  0.50810000  0.11250000  1
  C  C221  1  0.28140000  0.99190000  0.38750000  1
  C  C222  1  0.28720000  0.04850000  0.35630000  1
  C  C223  1  0.28720000  0.45150000  0.14370000  1
  C  C224  1  0.32660000  0.08690000  0.11960000  1
  C  C225  1  0.32660000  0.41310000  0.38040000  1
  C  C226  1  0.33130000  0.03370000  0.08680000  1
  C  C227  1  0.33130000  0.46630000  0.41320000  1
  C  C228  1  0.33490000  0.61670000  0.14610000  1
  C  C229  1  0.33490000  0.88330000  0.35390000  1
  C  C230  1  0.33650000  0.56360000  0.11180000  1
  C  C231  1  0.33650000  0.93640000  0.38820000  1
  C  C232  1  0.34470000  0.24140000  0.81600000  1
  C  C233  1  0.34470000  0.25860000  0.68400000  1
  C  C234  1  0.38170000  0.72550000  0.18320000  1
  C  C235  1  0.38170000  0.77450000  0.31680000  1
  C  C236  1  0.38330000  0.66510000  0.14610000  1
  C  C237  1  0.38330000  0.83490000  0.35390000  1
  C  C238  1  0.39080000  0.55920000  0.07630000  1
  C  C239  1  0.39080000  0.94080000  0.42370000  1
  C  C240  1  0.39170000  0.50070000  0.03960000  1
  C  C241  1  0.39170000  0.99930000  0.46040000  1
  C  C242  1  0.39350000  0.02440000  0.05370000  1
  C  C243  1  0.39350000  0.47560000  0.44630000  1
  C  C244  1  0.40460000  0.23510000  0.85060000  1
  C  C245  1  0.40460000  0.26490000  0.64940000  1
  C  C246  1  0.41310000  0.17340000  0.88040000  1
  C  C247  1  0.41310000  0.32660000  0.61960000  1
  C  C248  1  0.43640000  0.66350000  0.11180000  1
  C  C249  1  0.43640000  0.83650000  0.38820000  1
  C  C250  1  0.44080000  0.60920000  0.07630000  1
  C  C251  1  0.44080000  0.89080000  0.42370000  1
  C  C252  1  0.45150000  0.21280000  0.64370000  1
  C  C253  1  0.45150000  0.28720000  0.85630000  1
  C  C254  1  0.46630000  0.16870000  0.91320000  1
  C  C255  1  0.46630000  0.33130000  0.58680000  1
  C  C256  1  0.47560000  0.10650000  0.94630000  1
  C  C257  1  0.47560000  0.39350000  0.55370000  1
  C  C258  1  0.48490000  0.72410000  0.41750000  1
  C  C259  1  0.48490000  0.77590000  0.08250000  1
  C  C260  1  0.49190000  0.71860000  0.11250000  1
  C  C261  1  0.49190000  0.78140000  0.38750000  1
  C  C262  1  0.49930000  0.60830000  0.03960000  1
  C  C263  1  0.49930000  0.89170000  0.46040000  1
  C  C264  1  0.50070000  0.10830000  0.53960000  1
  C  C265  1  0.50070000  0.39170000  0.96040000  1
  C  C266  1  0.50810000  0.21860000  0.61250000  1
  C  C267  1  0.50810000  0.28140000  0.88750000  1
  C  C268  1  0.51510000  0.22410000  0.91750000  1
  C  C269  1  0.51510000  0.27590000  0.58250000  1
  C  C270  1  0.52440000  0.60650000  0.44630000  1
  C  C271  1  0.52440000  0.89350000  0.05370000  1
  C  C272  1  0.53370000  0.66870000  0.41320000  1
  C  C273  1  0.53370000  0.83130000  0.08680000  1
  C  C274  1  0.54850000  0.71280000  0.14370000  1
  C  C275  1  0.54850000  0.78720000  0.35630000  1
  C  C276  1  0.55920000  0.10920000  0.57630000  1
  C  C277  1  0.55920000  0.39080000  0.92370000  1
  C  C278  1  0.56360000  0.16350000  0.61180000  1
  C  C279  1  0.56360000  0.33650000  0.88820000  1
  C  C280  1  0.58690000  0.67340000  0.38040000  1
  C  C281  1  0.58690000  0.82660000  0.11960000  1
  C  C282  1  0.59540000  0.73510000  0.35060000  1
  C  C283  1  0.59540000  0.76490000  0.14940000  1
  C  C284  1  0.60650000  0.52440000  0.55370000  1
  C  C285  1  0.60650000  0.97560000  0.94630000  1
  C  C286  1  0.60830000  0.00070000  0.53960000  1
  C  C287  1  0.60830000  0.49930000  0.96040000  1
  C  C288  1  0.60920000  0.05920000  0.57630000  1
  C  C289  1  0.60920000  0.44080000  0.92370000  1
  C  C290  1  0.61670000  0.16510000  0.64610000  1
  C  C291  1  0.61670000  0.33490000  0.85390000  1
  C  C292  1  0.61830000  0.22550000  0.68320000  1
  C  C293  1  0.61830000  0.27450000  0.81680000  1
  C  C294  1  0.65530000  0.74140000  0.31600000  1
  C  C295  1  0.65530000  0.75860000  0.18400000  1
  C  C296  1  0.66350000  0.06360000  0.61180000  1
  C  C297  1  0.66350000  0.43640000  0.88820000  1
  C  C298  1  0.66510000  0.11670000  0.64610000  1
  C  C299  1  0.66510000  0.38330000  0.85390000  1
  C  C300  1  0.66870000  0.53370000  0.58680000  1
  C  C301  1  0.66870000  0.96630000  0.91320000  1
  C  C302  1  0.67340000  0.58690000  0.61960000  1
  C  C303  1  0.67340000  0.91310000  0.88040000  1
  C  C304  1  0.71280000  0.54850000  0.85630000  1
  C  C305  1  0.71280000  0.95150000  0.64370000  1
  C  C306  1  0.71860000  0.00810000  0.61250000  1
  C  C307  1  0.71860000  0.49190000  0.88750000  1
  C  C308  1  0.72410000  0.01510000  0.91750000  1
  C  C309  1  0.72410000  0.48490000  0.58250000  1
  C  C310  1  0.72550000  0.11830000  0.68320000  1
  C  C311  1  0.72550000  0.38170000  0.81680000  1
  C  C312  1  0.73510000  0.59540000  0.64940000  1
  C  C313  1  0.73510000  0.90460000  0.85060000  1
  C  C314  1  0.74140000  0.65530000  0.68400000  1
  C  C315  1  0.74140000  0.84470000  0.81600000  1
  C  C316  1  0.75860000  0.65530000  0.81600000  1
  C  C317  1  0.75860000  0.84470000  0.68400000  1
  C  C318  1  0.76490000  0.59540000  0.85060000  1
  C  C319  1  0.76490000  0.90460000  0.64940000  1
  C  C320  1  0.77450000  0.11830000  0.81680000  1
  C  C321  1  0.77450000  0.38170000  0.68320000  1
  C  C322  1  0.77590000  0.01510000  0.58250000  1
  C  C323  1  0.77590000  0.48490000  0.91750000  1
  C  C324  1  0.78140000  0.00810000  0.88750000  1
  C  C325  1  0.78140000  0.49190000  0.61250000  1
  C  C326  1  0.78720000  0.54850000  0.64370000  1
  C  C327  1  0.78720000  0.95150000  0.85630000  1
  C  C328  1  0.82660000  0.58690000  0.88040000  1
  C  C329  1  0.82660000  0.91310000  0.61960000  1
  C  C330  1  0.83130000  0.53370000  0.91320000  1
  C  C331  1  0.83130000  0.96630000  0.58680000  1
  C  C332  1  0.83490000  0.11670000  0.85390000  1
  C  C333  1  0.83490000  0.38330000  0.64610000  1
  C  C334  1  0.83650000  0.06360000  0.88820000  1
  C  C335  1  0.83650000  0.43640000  0.61180000  1
  C  C336  1  0.84470000  0.74140000  0.18400000  1
  C  C337  1  0.84470000  0.75860000  0.31600000  1
  C  C338  1  0.88170000  0.22550000  0.81680000  1
  C  C339  1  0.88170000  0.27450000  0.68320000  1
  C  C340  1  0.88330000  0.16510000  0.85390000  1
  C  C341  1  0.88330000  0.33490000  0.64610000  1
  C  C342  1  0.89080000  0.05920000  0.92370000  1
  C  C343  1  0.89080000  0.44080000  0.57630000  1
  C  C344  1  0.89170000  0.00070000  0.96040000  1
  C  C345  1  0.89170000  0.49930000  0.53960000  1
  C  C346  1  0.89350000  0.52440000  0.94630000  1
  C  C347  1  0.89350000  0.97560000  0.55370000  1
  C  C348  1  0.90460000  0.73510000  0.14940000  1
  C  C349  1  0.90460000  0.76490000  0.35060000  1
  C  C350  1  0.91310000  0.67340000  0.11960000  1
  C  C351  1  0.91310000  0.82660000  0.38040000  1
  C  C352  1  0.93640000  0.16350000  0.88820000  1
  C  C353  1  0.93640000  0.33650000  0.61180000  1
  C  C354  1  0.94080000  0.10920000  0.92370000  1
  C  C355  1  0.94080000  0.39080000  0.57630000  1
  C  C356  1  0.95150000  0.71280000  0.35630000  1
  C  C357  1  0.95150000  0.78720000  0.14370000  1
  C  C358  1  0.96630000  0.66870000  0.08680000  1
  C  C359  1  0.96630000  0.83130000  0.41320000  1
  C  C360  1  0.97560000  0.60650000  0.05370000  1
  C  C361  1  0.97560000  0.89350000  0.44630000  1
  C  C362  1  0.98490000  0.22410000  0.58250000  1
  C  C363  1  0.98490000  0.27590000  0.91750000  1
  C  C364  1  0.99190000  0.21860000  0.88750000  1
  C  C365  1  0.99190000  0.28140000  0.61250000  1
  C  C366  1  0.99930000  0.10830000  0.96040000  1
  C  C367  1  0.99930000  0.39170000  0.53960000  1
  O  O368  1  0.01120000  0.61300000  0.01610000  1
  O  O369  1  0.01120000  0.88700000  0.48390000  1
  O  O370  1  0.05150000  0.05270000  0.43200000  1
  O  O371  1  0.05150000  0.44730000  0.06800000  1
  O  O372  1  0.05270000  0.05150000  0.56800000  1
  O  O373  1  0.05270000  0.44850000  0.93200000  1
  O  O374  1  0.11300000  0.51120000  0.01610000  1
  O  O375  1  0.11300000  0.98880000  0.48390000  1
  O  O376  1  0.16520000  0.20290000  0.79570000  1
  O  O377  1  0.16520000  0.29710000  0.70430000  1
  O  O378  1  0.18640000  0.18950000  0.30890000  1
  O  O379  1  0.18640000  0.31050000  0.19110000  1
  O  O380  1  0.18950000  0.18640000  0.69110000  1
  O  O381  1  0.18950000  0.31360000  0.80890000  1
  O  O382  1  0.20290000  0.16520000  0.20430000  1
  O  O383  1  0.20290000  0.33480000  0.29570000  1
  O  O384  1  0.29710000  0.16520000  0.29570000  1
  O  O385  1  0.29710000  0.33480000  0.20430000  1
  O  O386  1  0.31050000  0.18640000  0.80890000  1
  O  O387  1  0.31050000  0.31360000  0.69110000  1
  O  O388  1  0.31360000  0.18950000  0.19110000  1
  O  O389  1  0.31360000  0.31050000  0.30890000  1
  O  O390  1  0.33480000  0.20290000  0.70430000  1
  O  O391  1  0.33480000  0.29710000  0.79570000  1
  O  O392  1  0.38700000  0.51120000  0.48390000  1
  O  O393  1  0.38700000  0.98880000  0.01610000  1
  O  O394  1  0.44730000  0.05150000  0.93200000  1
  O  O395  1  0.44730000  0.44850000  0.56800000  1
  O  O396  1  0.44850000  0.05270000  0.06800000  1
  O  O397  1  0.44850000  0.44730000  0.43200000  1
  O  O398  1  0.48880000  0.61300000  0.48390000  1
  O  O399  1  0.48880000  0.88700000  0.01610000  1
  O  O400  1  0.51120000  0.11300000  0.98390000  1
  O  O401  1  0.51120000  0.38700000  0.51610000  1
  O  O402  1  0.55150000  0.55270000  0.56800000  1
  O  O403  1  0.55150000  0.94730000  0.93200000  1
  O  O404  1  0.55270000  0.55150000  0.43200000  1
  O  O405  1  0.55270000  0.94850000  0.06800000  1
  O  O406  1  0.61300000  0.01120000  0.98390000  1
  O  O407  1  0.61300000  0.48880000  0.51610000  1
  O  O408  1  0.66520000  0.70290000  0.20430000  1
  O  O409  1  0.66520000  0.79710000  0.29570000  1
  O  O410  1  0.68640000  0.68950000  0.69110000  1
  O  O411  1  0.68640000  0.81050000  0.80890000  1
  O  O412  1  0.68950000  0.68640000  0.30890000  1
  O  O413  1  0.68950000  0.81360000  0.19110000  1
  O  O414  1  0.70290000  0.66520000  0.79570000  1
  O  O415  1  0.70290000  0.83480000  0.70430000  1
  O  O416  1  0.79710000  0.66520000  0.70430000  1
  O  O417  1  0.79710000  0.83480000  0.79570000  1
  O  O418  1  0.81050000  0.68640000  0.19110000  1
  O  O419  1  0.81050000  0.81360000  0.30890000  1
  O  O420  1  0.81360000  0.68950000  0.80890000  1
  O  O421  1  0.81360000  0.81050000  0.69110000  1
  O  O422  1  0.83480000  0.70290000  0.29570000  1
  O  O423  1  0.83480000  0.79710000  0.20430000  1
  O  O424  1  0.88700000  0.01120000  0.51610000  1
  O  O425  1  0.88700000  0.48880000  0.98390000  1
  O  O426  1  0.94730000  0.55150000  0.06800000  1
  O  O427  1  0.94730000  0.94850000  0.43200000  1
  O  O428  1  0.94850000  0.55270000  0.93200000  1
  O  O429  1  0.94850000  0.94730000  0.56800000  1
  O  O430  1  0.98880000  0.11300000  0.51610000  1
  O  O431  1  0.98880000  0.38700000  0.98390000  1
