# generated using pymatgen
data_ZnH7C10N5O2
_symmetry_space_group_name_H-M   'P 1'
_cell_length_a   18.48820000
_cell_length_b   26.64070000
_cell_length_c   26.64070000
_cell_angle_alpha   120.00000000
_cell_angle_beta   90.00000000
_cell_angle_gamma   90.00000000
_symmetry_Int_Tables_number   1
_chemical_formula_structural   ZnH7C10N5O2
_chemical_formula_sum   'Zn24 H168 C240 N120 O48'
_cell_volume   11363.61538906
_cell_formula_units_Z   24
loop_
 _symmetry_equiv_pos_site_id
 _symmetry_equiv_pos_as_xyz
  1  'x, y, z'
loop_
 _atom_site_type_symbol
 _atom_site_label
 _atom_site_symmetry_multiplicity
 _atom_site_fract_x
 _atom_site_fract_y
 _atom_site_fract_z
 _atom_site_occupancy
  Zn  Zn0  1  0.08718000  0.10823000  0.66823000  1
  Zn  Zn1  1  0.08718000  0.33177000  0.89177000  1
  Zn  Zn2  1  0.08718000  0.10823000  0.44000000  1
  Zn  Zn3  1  0.08718000  0.56000000  0.89177000  1
  Zn  Zn4  1  0.08718000  0.33177000  0.44000000  1
  Zn  Zn5  1  0.08718000  0.56000000  0.66823000  1
  Zn  Zn6  1  0.41282000  0.10823000  0.66823000  1
  Zn  Zn7  1  0.41282000  0.33177000  0.89177000  1
  Zn  Zn8  1  0.41282000  0.10823000  0.44000000  1
  Zn  Zn9  1  0.41282000  0.56000000  0.89177000  1
  Zn  Zn10  1  0.41282000  0.33177000  0.44000000  1
  Zn  Zn11  1  0.41282000  0.56000000  0.66823000  1
  Zn  Zn12  1  0.58718000  0.44000000  0.33177000  1
  Zn  Zn13  1  0.58718000  0.66823000  0.56000000  1
  Zn  Zn14  1  0.58718000  0.44000000  0.10823000  1
  Zn  Zn15  1  0.58718000  0.89177000  0.56000000  1
  Zn  Zn16  1  0.58718000  0.66823000  0.10823000  1
  Zn  Zn17  1  0.58718000  0.89177000  0.33177000  1
  Zn  Zn18  1  0.91282000  0.44000000  0.33177000  1
  Zn  Zn19  1  0.91282000  0.66823000  0.56000000  1
  Zn  Zn20  1  0.91282000  0.44000000  0.10823000  1
  Zn  Zn21  1  0.91282000  0.89177000  0.56000000  1
  Zn  Zn22  1  0.91282000  0.66823000  0.10823000  1
  Zn  Zn23  1  0.91282000  0.89177000  0.33177000  1
  H  H24  1  0.00000000  0.41960000  0.41960000  1
  H  H25  1  0.00000000  0.58040000  0.58040000  1
  H  H26  1  0.00000000  1.00000000  0.58040000  1
  H  H27  1  0.00000000  0.41960000  0.00000000  1
  H  H28  1  0.00000000  0.00000000  0.41960000  1
  H  H29  1  0.00000000  0.58040000  1.00000000  1
  H  H30  1  0.00530000  0.54670000  0.35540000  1
  H  H31  1  0.00530000  0.64460000  0.45330000  1
  H  H32  1  0.00530000  0.54670000  0.19130000  1
  H  H33  1  0.00530000  0.80870000  0.45330000  1
  H  H34  1  0.00530000  0.64460000  0.19130000  1
  H  H35  1  0.00530000  0.80870000  0.35540000  1
  H  H36  1  0.03100000  0.04530000  0.83490000  1
  H  H37  1  0.03100000  0.16510000  0.95470000  1
  H  H38  1  0.03100000  0.04530000  0.21040000  1
  H  H39  1  0.03100000  0.78960000  0.95470000  1
  H  H40  1  0.03100000  0.16510000  0.21040000  1
  H  H41  1  0.03100000  0.78960000  0.83490000  1
  H  H42  1  0.07170000  0.08830000  0.78100000  1
  H  H43  1  0.07170000  0.21900000  0.91170000  1
  H  H44  1  0.07170000  0.08830000  0.30730000  1
  H  H45  1  0.07170000  0.69270000  0.91170000  1
  H  H46  1  0.07170000  0.21900000  0.30730000  1
  H  H47  1  0.07170000  0.69270000  0.78100000  1
  H  H48  1  0.08000000  0.43050000  0.30290000  1
  H  H49  1  0.08000000  0.69710000  0.56950000  1
  H  H50  1  0.08000000  0.43050000  0.12760000  1
  H  H51  1  0.08000000  0.87240000  0.56950000  1
  H  H52  1  0.08000000  0.69710000  0.12760000  1
  H  H53  1  0.08000000  0.87240000  0.30290000  1
  H  H54  1  0.13740000  0.22105000  0.77895000  1
  H  H55  1  0.13740000  0.22105000  0.44210000  1
  H  H56  1  0.13740000  0.55790000  0.77895000  1
  H  H57  1  0.18880000  0.42140000  0.25450000  1
  H  H58  1  0.18880000  0.74550000  0.57860000  1
  H  H59  1  0.18880000  0.42140000  0.16690000  1
  H  H60  1  0.18880000  0.83310000  0.57860000  1
  H  H61  1  0.18880000  0.74550000  0.16690000  1
  H  H62  1  0.18880000  0.83310000  0.25450000  1
  H  H63  1  0.18950000  0.01760000  0.68560000  1
  H  H64  1  0.18950000  0.31440000  0.98240000  1
  H  H65  1  0.18950000  0.01760000  0.33200000  1
  H  H66  1  0.18950000  0.66800000  0.98240000  1
  H  H67  1  0.18950000  0.31440000  0.33200000  1
  H  H68  1  0.18950000  0.66800000  0.68560000  1
  H  H69  1  0.31050000  0.01760000  0.68560000  1
  H  H70  1  0.31050000  0.31440000  0.98240000  1
  H  H71  1  0.31050000  0.01760000  0.33200000  1
  H  H72  1  0.31050000  0.66800000  0.98240000  1
  H  H73  1  0.31050000  0.31440000  0.33200000  1
  H  H74  1  0.31050000  0.66800000  0.68560000  1
  H  H75  1  0.31120000  0.42140000  0.25450000  1
  H  H76  1  0.31120000  0.74550000  0.57860000  1
  H  H77  1  0.31120000  0.42140000  0.16690000  1
  H  H78  1  0.31120000  0.83310000  0.57860000  1
  H  H79  1  0.31120000  0.74550000  0.16690000  1
  H  H80  1  0.31120000  0.83310000  0.25450000  1
  H  H81  1  0.36260000  0.22105000  0.77895000  1
  H  H82  1  0.36260000  0.22105000  0.44210000  1
  H  H83  1  0.36260000  0.55790000  0.77895000  1
  H  H84  1  0.42000000  0.43050000  0.30290000  1
  H  H85  1  0.42000000  0.69710000  0.56950000  1
  H  H86  1  0.42000000  0.43050000  0.12760000  1
  H  H87  1  0.42000000  0.87240000  0.56950000  1
  H  H88  1  0.42000000  0.69710000  0.12760000  1
  H  H89  1  0.42000000  0.87240000  0.30290000  1
  H  H90  1  0.42830000  0.08830000  0.78100000  1
  H  H91  1  0.42830000  0.21900000  0.91170000  1
  H  H92  1  0.42830000  0.08830000  0.30730000  1
  H  H93  1  0.42830000  0.69270000  0.91170000  1
  H  H94  1  0.42830000  0.21900000  0.30730000  1
  H  H95  1  0.42830000  0.69270000  0.78100000  1
  H  H96  1  0.46900000  0.04530000  0.83490000  1
  H  H97  1  0.46900000  0.16510000  0.95470000  1
  H  H98  1  0.46900000  0.04530000  0.21040000  1
  H  H99  1  0.46900000  0.78960000  0.95470000  1
  H  H100  1  0.46900000  0.16510000  0.21040000  1
  H  H101  1  0.46900000  0.78960000  0.83490000  1
  H  H102  1  0.49470000  0.54670000  0.35540000  1
  H  H103  1  0.49470000  0.64460000  0.45330000  1
  H  H104  1  0.49470000  0.54670000  0.19130000  1
  H  H105  1  0.49470000  0.80870000  0.45330000  1
  H  H106  1  0.49470000  0.64460000  0.19130000  1
  H  H107  1  0.49470000  0.80870000  0.35540000  1
  H  H108  1  0.50000000  0.41960000  0.41960000  1
  H  H109  1  0.50000000  0.58040000  0.58040000  1
  H  H110  1  0.50000000  1.00000000  0.58040000  1
  H  H111  1  0.50000000  0.41960000  0.00000000  1
  H  H112  1  0.50000000  0.00000000  0.41960000  1
  H  H113  1  0.50000000  0.58040000  1.00000000  1
  H  H114  1  0.50530000  0.19130000  0.64460000  1
  H  H115  1  0.50530000  0.35540000  0.80870000  1
  H  H116  1  0.50530000  0.19130000  0.54670000  1
  H  H117  1  0.50530000  0.45330000  0.80870000  1
  H  H118  1  0.50530000  0.35540000  0.54670000  1
  H  H119  1  0.50530000  0.45330000  0.64460000  1
  H  H120  1  0.53100000  0.21040000  0.16510000  1
  H  H121  1  0.53100000  0.83490000  0.78960000  1
  H  H122  1  0.53100000  0.21040000  0.04530000  1
  H  H123  1  0.53100000  0.95470000  0.78960000  1
  H  H124  1  0.53100000  0.83490000  0.04530000  1
  H  H125  1  0.53100000  0.95470000  0.16510000  1
  H  H126  1  0.57170000  0.30730000  0.21900000  1
  H  H127  1  0.57170000  0.78100000  0.69270000  1
  H  H128  1  0.57170000  0.30730000  0.08830000  1
  H  H129  1  0.57170000  0.91170000  0.69270000  1
  H  H130  1  0.57170000  0.78100000  0.08830000  1
  H  H131  1  0.57170000  0.91170000  0.21900000  1
  H  H132  1  0.58000000  0.12760000  0.69710000  1
  H  H133  1  0.58000000  0.30290000  0.87240000  1
  H  H134  1  0.58000000  0.12760000  0.43050000  1
  H  H135  1  0.58000000  0.56950000  0.87240000  1
  H  H136  1  0.58000000  0.30290000  0.43050000  1
  H  H137  1  0.58000000  0.56950000  0.69710000  1
  H  H138  1  0.63740000  0.44210000  0.22105000  1
  H  H139  1  0.63740000  0.77895000  0.55790000  1
  H  H140  1  0.63740000  0.77895000  0.22105000  1
  H  H141  1  0.68880000  0.16690000  0.74550000  1
  H  H142  1  0.68880000  0.25450000  0.83310000  1
  H  H143  1  0.68880000  0.16690000  0.42140000  1
  H  H144  1  0.68880000  0.57860000  0.83310000  1
  H  H145  1  0.68880000  0.25450000  0.42140000  1
  H  H146  1  0.68880000  0.57860000  0.74550000  1
  H  H147  1  0.68950000  0.33200000  0.31440000  1
  H  H148  1  0.68950000  0.68560000  0.66800000  1
  H  H149  1  0.68950000  0.33200000  0.01760000  1
  H  H150  1  0.68950000  0.98240000  0.66800000  1
  H  H151  1  0.68950000  0.68560000  0.01760000  1
  H  H152  1  0.68950000  0.98240000  0.31440000  1
  H  H153  1  0.81050000  0.33200000  0.31440000  1
  H  H154  1  0.81050000  0.68560000  0.66800000  1
  H  H155  1  0.81050000  0.33200000  0.01760000  1
  H  H156  1  0.81050000  0.98240000  0.66800000  1
  H  H157  1  0.81050000  0.68560000  0.01760000  1
  H  H158  1  0.81050000  0.98240000  0.31440000  1
  H  H159  1  0.81120000  0.16690000  0.74550000  1
  H  H160  1  0.81120000  0.25450000  0.83310000  1
  H  H161  1  0.81120000  0.16690000  0.42140000  1
  H  H162  1  0.81120000  0.57860000  0.83310000  1
  H  H163  1  0.81120000  0.25450000  0.42140000  1
  H  H164  1  0.81120000  0.57860000  0.74550000  1
  H  H165  1  0.86260000  0.44210000  0.22105000  1
  H  H166  1  0.86260000  0.77895000  0.55790000  1
  H  H167  1  0.86260000  0.77895000  0.22105000  1
  H  H168  1  0.92000000  0.12760000  0.69710000  1
  H  H169  1  0.92000000  0.30290000  0.87240000  1
  H  H170  1  0.92000000  0.12760000  0.43050000  1
  H  H171  1  0.92000000  0.56950000  0.87240000  1
  H  H172  1  0.92000000  0.30290000  0.43050000  1
  H  H173  1  0.92000000  0.56950000  0.69710000  1
  H  H174  1  0.92830000  0.30730000  0.21900000  1
  H  H175  1  0.92830000  0.78100000  0.69270000  1
  H  H176  1  0.92830000  0.30730000  0.08830000  1
  H  H177  1  0.92830000  0.91170000  0.69270000  1
  H  H178  1  0.92830000  0.78100000  0.08830000  1
  H  H179  1  0.92830000  0.91170000  0.21900000  1
  H  H180  1  0.96900000  0.21040000  0.16510000  1
  H  H181  1  0.96900000  0.83490000  0.78960000  1
  H  H182  1  0.96900000  0.21040000  0.04530000  1
  H  H183  1  0.96900000  0.95470000  0.78960000  1
  H  H184  1  0.96900000  0.83490000  0.04530000  1
  H  H185  1  0.96900000  0.95470000  0.16510000  1
  H  H186  1  0.99470000  0.19130000  0.64460000  1
  H  H187  1  0.99470000  0.35540000  0.80870000  1
  H  H188  1  0.99470000  0.19130000  0.54670000  1
  H  H189  1  0.99470000  0.45330000  0.80870000  1
  H  H190  1  0.99470000  0.35540000  0.54670000  1
  H  H191  1  0.99470000  0.45330000  0.64460000  1
  C  C192  1  0.00000000  0.38390000  0.38390000  1
  C  C193  1  0.00000000  0.61610000  0.61610000  1
  C  C194  1  0.00000000  1.00000000  0.61610000  1
  C  C195  1  0.00000000  0.38390000  1.00000000  1
  C  C196  1  0.00000000  1.00000000  0.38390000  1
  C  C197  1  0.00000000  0.61610000  1.00000000  1
  C  C198  1  0.01500000  0.43170000  0.24190000  1
  C  C199  1  0.01500000  0.75810000  0.56830000  1
  C  C200  1  0.01500000  0.43170000  0.18980000  1
  C  C201  1  0.01500000  0.81020000  0.56830000  1
  C  C202  1  0.01500000  0.75810000  0.18980000  1
  C  C203  1  0.01500000  0.81020000  0.24190000  1
  C  C204  1  0.01800000  0.16330000  0.61010000  1
  C  C205  1  0.01800000  0.38990000  0.83670000  1
  C  C206  1  0.01800000  0.16330000  0.55320000  1
  C  C207  1  0.01800000  0.44680000  0.83670000  1
  C  C208  1  0.01800000  0.38990000  0.55320000  1
  C  C209  1  0.01800000  0.44680000  0.61010000  1
  C  C210  1  0.02010000  0.02730000  0.79470000  1
  C  C211  1  0.02010000  0.20530000  0.97270000  1
  C  C212  1  0.02010000  0.02730000  0.23260000  1
  C  C213  1  0.02010000  0.76740000  0.97270000  1
  C  C214  1  0.02010000  0.20530000  0.23260000  1
  C  C215  1  0.02010000  0.76740000  0.79470000  1
  C  C216  1  0.02100000  0.02710000  0.70460000  1
  C  C217  1  0.02100000  0.29540000  0.97290000  1
  C  C218  1  0.02100000  0.02710000  0.32250000  1
  C  C219  1  0.02100000  0.67750000  0.97290000  1
  C  C220  1  0.02100000  0.29540000  0.32250000  1
  C  C221  1  0.02100000  0.67750000  0.70460000  1
  C  C222  1  0.04300000  0.05410000  0.76360000  1
  C  C223  1  0.04300000  0.23640000  0.94590000  1
  C  C224  1  0.04300000  0.05410000  0.29050000  1
  C  C225  1  0.04300000  0.70950000  0.94590000  1
  C  C226  1  0.04300000  0.23640000  0.29050000  1
  C  C227  1  0.04300000  0.70950000  0.76360000  1
  C  C228  1  0.07770000  0.09540000  0.54770000  1
  C  C229  1  0.07770000  0.45230000  0.90460000  1
  C  C230  1  0.07770000  0.45230000  0.54770000  1
  C  C231  1  0.07990000  0.42910000  0.26650000  1
  C  C232  1  0.07990000  0.73350000  0.57090000  1
  C  C233  1  0.07990000  0.42910000  0.16260000  1
  C  C234  1  0.07990000  0.83740000  0.57090000  1
  C  C235  1  0.07990000  0.73350000  0.16260000  1
  C  C236  1  0.07990000  0.83740000  0.26650000  1
  C  C237  1  0.08620000  0.21945000  0.78055000  1
  C  C238  1  0.08620000  0.21945000  0.43890000  1
  C  C239  1  0.08620000  0.56110000  0.78055000  1
  C  C240  1  0.14450000  0.42460000  0.23830000  1
  C  C241  1  0.14450000  0.76170000  0.57540000  1
  C  C242  1  0.14450000  0.42460000  0.18630000  1
  C  C243  1  0.14450000  0.81370000  0.57540000  1
  C  C244  1  0.14450000  0.76170000  0.18630000  1
  C  C245  1  0.14450000  0.81370000  0.23830000  1
  C  C246  1  0.21960000  0.04560000  0.68390000  1
  C  C247  1  0.21960000  0.31610000  0.95440000  1
  C  C248  1  0.21960000  0.04560000  0.36170000  1
  C  C249  1  0.21960000  0.63830000  0.95440000  1
  C  C250  1  0.21960000  0.31610000  0.36170000  1
  C  C251  1  0.21960000  0.63830000  0.68390000  1
  C  C252  1  0.25000000  0.12610000  0.67830000  1
  C  C253  1  0.25000000  0.32170000  0.87390000  1
  C  C254  1  0.25000000  0.12610000  0.44780000  1
  C  C255  1  0.25000000  0.55220000  0.87390000  1
  C  C256  1  0.25000000  0.32170000  0.44780000  1
  C  C257  1  0.25000000  0.55220000  0.67830000  1
  C  C258  1  0.28040000  0.04560000  0.68390000  1
  C  C259  1  0.28040000  0.31610000  0.95440000  1
  C  C260  1  0.28040000  0.04560000  0.36170000  1
  C  C261  1  0.28040000  0.63830000  0.95440000  1
  C  C262  1  0.28040000  0.31610000  0.36170000  1
  C  C263  1  0.28040000  0.63830000  0.68390000  1
  C  C264  1  0.35550000  0.42460000  0.23830000  1
  C  C265  1  0.35550000  0.76170000  0.57540000  1
  C  C266  1  0.35550000  0.42460000  0.18630000  1
  C  C267  1  0.35550000  0.81370000  0.57540000  1
  C  C268  1  0.35550000  0.76170000  0.18630000  1
  C  C269  1  0.35550000  0.81370000  0.23830000  1
  C  C270  1  0.41380000  0.21945000  0.78055000  1
  C  C271  1  0.41380000  0.21945000  0.43890000  1
  C  C272  1  0.41380000  0.56110000  0.78055000  1
  C  C273  1  0.42010000  0.42910000  0.26650000  1
  C  C274  1  0.42010000  0.73350000  0.57090000  1
  C  C275  1  0.42010000  0.42910000  0.16260000  1
  C  C276  1  0.42010000  0.83740000  0.57090000  1
  C  C277  1  0.42010000  0.73350000  0.16260000  1
  C  C278  1  0.42010000  0.83740000  0.26650000  1
  C  C279  1  0.42230000  0.09540000  0.54770000  1
  C  C280  1  0.42230000  0.45230000  0.90460000  1
  C  C281  1  0.42230000  0.45230000  0.54770000  1
  C  C282  1  0.45700000  0.05410000  0.76360000  1
  C  C283  1  0.45700000  0.23640000  0.94590000  1
  C  C284  1  0.45700000  0.05410000  0.29050000  1
  C  C285  1  0.45700000  0.70950000  0.94590000  1
  C  C286  1  0.45700000  0.23640000  0.29050000  1
  C  C287  1  0.45700000  0.70950000  0.76360000  1
  C  C288  1  0.47900000  0.02710000  0.70460000  1
  C  C289  1  0.47900000  0.29540000  0.97290000  1
  C  C290  1  0.47900000  0.02710000  0.32250000  1
  C  C291  1  0.47900000  0.67750000  0.97290000  1
  C  C292  1  0.47900000  0.29540000  0.32250000  1
  C  C293  1  0.47900000  0.67750000  0.70460000  1
  C  C294  1  0.47990000  0.02730000  0.79470000  1
  C  C295  1  0.47990000  0.20530000  0.97270000  1
  C  C296  1  0.47990000  0.02730000  0.23260000  1
  C  C297  1  0.47990000  0.76740000  0.97270000  1
  C  C298  1  0.47990000  0.20530000  0.23260000  1
  C  C299  1  0.47990000  0.76740000  0.79470000  1
  C  C300  1  0.48200000  0.16330000  0.61010000  1
  C  C301  1  0.48200000  0.38990000  0.83670000  1
  C  C302  1  0.48200000  0.16330000  0.55320000  1
  C  C303  1  0.48200000  0.44680000  0.83670000  1
  C  C304  1  0.48200000  0.38990000  0.55320000  1
  C  C305  1  0.48200000  0.44680000  0.61010000  1
  C  C306  1  0.48500000  0.43170000  0.24190000  1
  C  C307  1  0.48500000  0.75810000  0.56830000  1
  C  C308  1  0.48500000  0.43170000  0.18980000  1
  C  C309  1  0.48500000  0.81020000  0.56830000  1
  C  C310  1  0.48500000  0.75810000  0.18980000  1
  C  C311  1  0.48500000  0.81020000  0.24190000  1
  C  C312  1  0.50000000  0.38390000  0.38390000  1
  C  C313  1  0.50000000  0.61610000  0.61610000  1
  C  C314  1  0.50000000  1.00000000  0.61610000  1
  C  C315  1  0.50000000  0.38390000  1.00000000  1
  C  C316  1  0.50000000  1.00000000  0.38390000  1
  C  C317  1  0.50000000  0.61610000  0.00000000  1
  C  C318  1  0.51500000  0.18980000  0.75810000  1
  C  C319  1  0.51500000  0.24190000  0.81020000  1
  C  C320  1  0.51500000  0.18980000  0.43170000  1
  C  C321  1  0.51500000  0.56830000  0.81020000  1
  C  C322  1  0.51500000  0.24190000  0.43170000  1
  C  C323  1  0.51500000  0.56830000  0.75810000  1
  C  C324  1  0.51800000  0.55320000  0.38990000  1
  C  C325  1  0.51800000  0.61010000  0.44680000  1
  C  C326  1  0.51800000  0.55320000  0.16330000  1
  C  C327  1  0.51800000  0.83670000  0.44680000  1
  C  C328  1  0.51800000  0.61010000  0.16330000  1
  C  C329  1  0.51800000  0.83670000  0.38990000  1
  C  C330  1  0.52010000  0.23260000  0.20530000  1
  C  C331  1  0.52010000  0.79470000  0.76740000  1
  C  C332  1  0.52010000  0.23260000  0.02730000  1
  C  C333  1  0.52010000  0.97270000  0.76740000  1
  C  C334  1  0.52010000  0.79470000  0.02730000  1
  C  C335  1  0.52010000  0.97270000  0.20530000  1
  C  C336  1  0.52100000  0.32250000  0.29540000  1
  C  C337  1  0.52100000  0.70460000  0.67750000  1
  C  C338  1  0.52100000  0.32250000  0.02710000  1
  C  C339  1  0.52100000  0.97290000  0.67750000  1
  C  C340  1  0.52100000  0.70460000  0.02710000  1
  C  C341  1  0.52100000  0.97290000  0.29540000  1
  C  C342  1  0.54300000  0.29050000  0.23640000  1
  C  C343  1  0.54300000  0.76360000  0.70950000  1
  C  C344  1  0.54300000  0.29050000  0.05410000  1
  C  C345  1  0.54300000  0.94590000  0.70950000  1
  C  C346  1  0.54300000  0.76360000  0.05410000  1
  C  C347  1  0.54300000  0.94590000  0.23640000  1
  C  C348  1  0.57770000  0.54770000  0.45230000  1
  C  C349  1  0.57770000  0.54770000  0.09540000  1
  C  C350  1  0.57770000  0.90460000  0.45230000  1
  C  C351  1  0.57990000  0.16260000  0.73350000  1
  C  C352  1  0.57990000  0.26650000  0.83740000  1
  C  C353  1  0.57990000  0.16260000  0.42910000  1
  C  C354  1  0.57990000  0.57090000  0.83740000  1
  C  C355  1  0.57990000  0.26650000  0.42910000  1
  C  C356  1  0.57990000  0.57090000  0.73350000  1
  C  C357  1  0.58620000  0.43890000  0.21945000  1
  C  C358  1  0.58620000  0.78055000  0.56110000  1
  C  C359  1  0.58620000  0.78055000  0.21945000  1
  C  C360  1  0.64450000  0.18630000  0.76170000  1
  C  C361  1  0.64450000  0.23830000  0.81370000  1
  C  C362  1  0.64450000  0.18630000  0.42460000  1
  C  C363  1  0.64450000  0.57540000  0.81370000  1
  C  C364  1  0.64450000  0.23830000  0.42460000  1
  C  C365  1  0.64450000  0.57540000  0.76170000  1
  C  C366  1  0.71960000  0.36170000  0.31610000  1
  C  C367  1  0.71960000  0.68390000  0.63830000  1
  C  C368  1  0.71960000  0.36170000  0.04560000  1
  C  C369  1  0.71960000  0.95440000  0.63830000  1
  C  C370  1  0.71960000  0.68390000  0.04560000  1
  C  C371  1  0.71960000  0.95440000  0.31610000  1
  C  C372  1  0.75000000  0.44780000  0.32170000  1
  C  C373  1  0.75000000  0.67830000  0.55220000  1
  C  C374  1  0.75000000  0.44780000  0.12610000  1
  C  C375  1  0.75000000  0.87390000  0.55220000  1
  C  C376  1  0.75000000  0.67830000  0.12610000  1
  C  C377  1  0.75000000  0.87390000  0.32170000  1
  C  C378  1  0.78040000  0.36170000  0.31610000  1
  C  C379  1  0.78040000  0.68390000  0.63830000  1
  C  C380  1  0.78040000  0.36170000  0.04560000  1
  C  C381  1  0.78040000  0.95440000  0.63830000  1
  C  C382  1  0.78040000  0.68390000  0.04560000  1
  C  C383  1  0.78040000  0.95440000  0.31610000  1
  C  C384  1  0.85550000  0.18630000  0.76170000  1
  C  C385  1  0.85550000  0.23830000  0.81370000  1
  C  C386  1  0.85550000  0.18630000  0.42460000  1
  C  C387  1  0.85550000  0.57540000  0.81370000  1
  C  C388  1  0.85550000  0.23830000  0.42460000  1
  C  C389  1  0.85550000  0.57540000  0.76170000  1
  C  C390  1  0.91380000  0.43890000  0.21945000  1
  C  C391  1  0.91380000  0.78055000  0.56110000  1
  C  C392  1  0.91380000  0.78055000  0.21945000  1
  C  C393  1  0.92010000  0.16260000  0.73350000  1
  C  C394  1  0.92010000  0.26650000  0.83740000  1
  C  C395  1  0.92010000  0.16260000  0.42910000  1
  C  C396  1  0.92010000  0.57090000  0.83740000  1
  C  C397  1  0.92010000  0.26650000  0.42910000  1
  C  C398  1  0.92010000  0.57090000  0.73350000  1
  C  C399  1  0.92230000  0.54770000  0.45230000  1
  C  C400  1  0.92230000  0.54770000  0.09540000  1
  C  C401  1  0.92230000  0.90460000  0.45230000  1
  C  C402  1  0.95700000  0.29050000  0.23640000  1
  C  C403  1  0.95700000  0.76360000  0.70950000  1
  C  C404  1  0.95700000  0.29050000  0.05410000  1
  C  C405  1  0.95700000  0.94590000  0.70950000  1
  C  C406  1  0.95700000  0.76360000  0.05410000  1
  C  C407  1  0.95700000  0.94590000  0.23640000  1
  C  C408  1  0.97900000  0.32250000  0.29540000  1
  C  C409  1  0.97900000  0.70460000  0.67750000  1
  C  C410  1  0.97900000  0.32250000  0.02710000  1
  C  C411  1  0.97900000  0.97290000  0.67750000  1
  C  C412  1  0.97900000  0.70460000  0.02710000  1
  C  C413  1  0.97900000  0.97290000  0.29540000  1
  C  C414  1  0.97990000  0.23260000  0.20530000  1
  C  C415  1  0.97990000  0.79470000  0.76740000  1
  C  C416  1  0.97990000  0.23260000  0.02730000  1
  C  C417  1  0.97990000  0.97270000  0.76740000  1
  C  C418  1  0.97990000  0.79470000  0.02730000  1
  C  C419  1  0.97990000  0.97270000  0.20530000  1
  C  C420  1  0.98200000  0.55320000  0.38990000  1
  C  C421  1  0.98200000  0.61010000  0.44680000  1
  C  C422  1  0.98200000  0.55320000  0.16330000  1
  C  C423  1  0.98200000  0.83670000  0.44680000  1
  C  C424  1  0.98200000  0.61010000  0.16330000  1
  C  C425  1  0.98200000  0.83670000  0.38990000  1
  C  C426  1  0.98500000  0.18980000  0.75810000  1
  C  C427  1  0.98500000  0.24190000  0.81020000  1
  C  C428  1  0.98500000  0.18980000  0.43170000  1
  C  C429  1  0.98500000  0.56830000  0.81020000  1
  C  C430  1  0.98500000  0.24190000  0.43170000  1
  C  C431  1  0.98500000  0.56830000  0.75810000  1
  N  N432  1  0.03400000  0.04370000  0.66210000  1
  N  N433  1  0.03400000  0.33790000  0.95630000  1
  N  N434  1  0.03400000  0.04370000  0.38160000  1
  N  N435  1  0.03400000  0.61840000  0.95630000  1
  N  N436  1  0.03400000  0.33790000  0.38160000  1
  N  N437  1  0.03400000  0.61840000  0.66210000  1
  N  N438  1  0.04950000  0.17660000  0.74000000  1
  N  N439  1  0.04950000  0.26000000  0.82340000  1
  N  N440  1  0.04950000  0.17660000  0.43660000  1
  N  N441  1  0.04950000  0.56340000  0.82340000  1
  N  N442  1  0.04950000  0.26000000  0.43660000  1
  N  N443  1  0.04950000  0.56340000  0.74000000  1
  N  N444  1  0.05290000  0.12140000  0.60480000  1
  N  N445  1  0.05290000  0.39520000  0.87860000  1
  N  N446  1  0.05290000  0.12140000  0.51660000  1
  N  N447  1  0.05290000  0.48340000  0.87860000  1
  N  N448  1  0.05290000  0.39520000  0.51660000  1
  N  N449  1  0.05290000  0.48340000  0.60480000  1
  N  N450  1  0.11360000  0.05030000  0.52515000  1
  N  N451  1  0.11360000  0.47485000  0.94970000  1
  N  N452  1  0.11360000  0.47485000  0.52515000  1
  N  N453  1  0.19520000  0.09580000  0.68080000  1
  N  N454  1  0.19520000  0.31920000  0.90420000  1
  N  N455  1  0.19520000  0.09580000  0.41500000  1
  N  N456  1  0.19520000  0.58500000  0.90420000  1
  N  N457  1  0.19520000  0.31920000  0.41500000  1
  N  N458  1  0.19520000  0.58500000  0.68080000  1
  N  N459  1  0.25000000  0.17110000  0.67510000  1
  N  N460  1  0.25000000  0.32490000  0.82890000  1
  N  N461  1  0.25000000  0.17110000  0.49600000  1
  N  N462  1  0.25000000  0.50400000  0.82890000  1
  N  N463  1  0.25000000  0.32490000  0.49600000  1
  N  N464  1  0.25000000  0.50400000  0.67510000  1
  N  N465  1  0.30480000  0.09580000  0.68080000  1
  N  N466  1  0.30480000  0.31920000  0.90420000  1
  N  N467  1  0.30480000  0.09580000  0.41500000  1
  N  N468  1  0.30480000  0.58500000  0.90420000  1
  N  N469  1  0.30480000  0.31920000  0.41500000  1
  N  N470  1  0.30480000  0.58500000  0.68080000  1
  N  N471  1  0.38640000  0.05030000  0.52515000  1
  N  N472  1  0.38640000  0.47485000  0.94970000  1
  N  N473  1  0.38640000  0.47485000  0.52515000  1
  N  N474  1  0.44710000  0.12140000  0.60480000  1
  N  N475  1  0.44710000  0.39520000  0.87860000  1
  N  N476  1  0.44710000  0.12140000  0.51660000  1
  N  N477  1  0.44710000  0.48340000  0.87860000  1
  N  N478  1  0.44710000  0.39520000  0.51660000  1
  N  N479  1  0.44710000  0.48340000  0.60480000  1
  N  N480  1  0.45050000  0.17660000  0.74000000  1
  N  N481  1  0.45050000  0.26000000  0.82340000  1
  N  N482  1  0.45050000  0.17660000  0.43660000  1
  N  N483  1  0.45050000  0.56340000  0.82340000  1
  N  N484  1  0.45050000  0.26000000  0.43660000  1
  N  N485  1  0.45050000  0.56340000  0.74000000  1
  N  N486  1  0.46600000  0.04370000  0.66210000  1
  N  N487  1  0.46600000  0.33790000  0.95630000  1
  N  N488  1  0.46600000  0.04370000  0.38160000  1
  N  N489  1  0.46600000  0.61840000  0.95630000  1
  N  N490  1  0.46600000  0.33790000  0.38160000  1
  N  N491  1  0.46600000  0.61840000  0.66210000  1
  N  N492  1  0.53400000  0.38160000  0.33790000  1
  N  N493  1  0.53400000  0.66210000  0.61840000  1
  N  N494  1  0.53400000  0.38160000  0.04370000  1
  N  N495  1  0.53400000  0.95630000  0.61840000  1
  N  N496  1  0.53400000  0.66210000  0.04370000  1
  N  N497  1  0.53400000  0.95630000  0.33790000  1
  N  N498  1  0.54950000  0.43660000  0.26000000  1
  N  N499  1  0.54950000  0.74000000  0.56340000  1
  N  N500  1  0.54950000  0.43660000  0.17660000  1
  N  N501  1  0.54950000  0.82340000  0.56340000  1
  N  N502  1  0.54950000  0.74000000  0.17660000  1
  N  N503  1  0.54950000  0.82340000  0.26000000  1
  N  N504  1  0.55290000  0.51660000  0.39520000  1
  N  N505  1  0.55290000  0.60480000  0.48340000  1
  N  N506  1  0.55290000  0.51660000  0.12140000  1
  N  N507  1  0.55290000  0.87860000  0.48340000  1
  N  N508  1  0.55290000  0.60480000  0.12140000  1
  N  N509  1  0.55290000  0.87860000  0.39520000  1
  N  N510  1  0.61360000  0.52515000  0.47485000  1
  N  N511  1  0.61360000  0.52515000  0.05030000  1
  N  N512  1  0.61360000  0.94970000  0.47485000  1
  N  N513  1  0.69520000  0.41500000  0.31920000  1
  N  N514  1  0.69520000  0.68080000  0.58500000  1
  N  N515  1  0.69520000  0.41500000  0.09580000  1
  N  N516  1  0.69520000  0.90420000  0.58500000  1
  N  N517  1  0.69520000  0.68080000  0.09580000  1
  N  N518  1  0.69520000  0.90420000  0.31920000  1
  N  N519  1  0.75000000  0.49600000  0.32490000  1
  N  N520  1  0.75000000  0.67510000  0.50400000  1
  N  N521  1  0.75000000  0.49600000  0.17110000  1
  N  N522  1  0.75000000  0.82890000  0.50400000  1
  N  N523  1  0.75000000  0.67510000  0.17110000  1
  N  N524  1  0.75000000  0.82890000  0.32490000  1
  N  N525  1  0.80480000  0.41500000  0.31920000  1
  N  N526  1  0.80480000  0.68080000  0.58500000  1
  N  N527  1  0.80480000  0.41500000  0.09580000  1
  N  N528  1  0.80480000  0.90420000  0.58500000  1
  N  N529  1  0.80480000  0.68080000  0.09580000  1
  N  N530  1  0.80480000  0.90420000  0.31920000  1
  N  N531  1  0.88640000  0.52515000  0.47485000  1
  N  N532  1  0.88640000  0.52515000  0.05030000  1
  N  N533  1  0.88640000  0.94970000  0.47485000  1
  N  N534  1  0.94710000  0.51660000  0.39520000  1
  N  N535  1  0.94710000  0.60480000  0.48340000  1
  N  N536  1  0.94710000  0.51660000  0.12140000  1
  N  N537  1  0.94710000  0.87860000  0.48340000  1
  N  N538  1  0.94710000  0.60480000  0.12140000  1
  N  N539  1  0.94710000  0.87860000  0.39520000  1
  N  N540  1  0.95050000  0.43660000  0.26000000  1
  N  N541  1  0.95050000  0.74000000  0.56340000  1
  N  N542  1  0.95050000  0.43660000  0.17660000  1
  N  N543  1  0.95050000  0.82340000  0.56340000  1
  N  N544  1  0.95050000  0.74000000  0.17660000  1
  N  N545  1  0.95050000  0.82340000  0.26000000  1
  N  N546  1  0.96600000  0.38160000  0.33790000  1
  N  N547  1  0.96600000  0.66210000  0.61840000  1
  N  N548  1  0.96600000  0.38160000  0.04370000  1
  N  N549  1  0.96600000  0.95630000  0.61840000  1
  N  N550  1  0.96600000  0.66210000  0.04370000  1
  N  N551  1  0.96600000  0.95630000  0.33790000  1
  O  O552  1  0.12450000  0.02680000  0.55510000  1
  O  O553  1  0.12450000  0.44490000  0.97320000  1
  O  O554  1  0.12450000  0.02680000  0.47170000  1
  O  O555  1  0.12450000  0.52830000  0.97320000  1
  O  O556  1  0.12450000  0.44490000  0.47170000  1
  O  O557  1  0.12450000  0.52830000  0.55510000  1
  O  O558  1  0.19420000  0.18790000  0.67210000  1
  O  O559  1  0.19420000  0.32790000  0.81210000  1
  O  O560  1  0.19420000  0.18790000  0.51580000  1
  O  O561  1  0.19420000  0.48420000  0.81210000  1
  O  O562  1  0.19420000  0.32790000  0.51580000  1
  O  O563  1  0.19420000  0.48420000  0.67210000  1
  O  O564  1  0.30580000  0.18790000  0.67210000  1
  O  O565  1  0.30580000  0.32790000  0.81210000  1
  O  O566  1  0.30580000  0.18790000  0.51580000  1
  O  O567  1  0.30580000  0.48420000  0.81210000  1
  O  O568  1  0.30580000  0.32790000  0.51580000  1
  O  O569  1  0.30580000  0.48420000  0.67210000  1
  O  O570  1  0.37550000  0.02680000  0.55510000  1
  O  O571  1  0.37550000  0.44490000  0.97320000  1
  O  O572  1  0.37550000  0.02680000  0.47170000  1
  O  O573  1  0.37550000  0.52830000  0.97320000  1
  O  O574  1  0.37550000  0.44490000  0.47170000  1
  O  O575  1  0.37550000  0.52830000  0.55510000  1
  O  O576  1  0.62450000  0.47170000  0.44490000  1
  O  O577  1  0.62450000  0.55510000  0.52830000  1
  O  O578  1  0.62450000  0.47170000  0.02680000  1
  O  O579  1  0.62450000  0.97320000  0.52830000  1
  O  O580  1  0.62450000  0.55510000  0.02680000  1
  O  O581  1  0.62450000  0.97320000  0.44490000  1
  O  O582  1  0.69420000  0.51580000  0.32790000  1
  O  O583  1  0.69420000  0.67210000  0.48420000  1
  O  O584  1  0.69420000  0.51580000  0.18790000  1
  O  O585  1  0.69420000  0.81210000  0.48420000  1
  O  O586  1  0.69420000  0.67210000  0.18790000  1
  O  O587  1  0.69420000  0.81210000  0.32790000  1
  O  O588  1  0.80580000  0.51580000  0.32790000  1
  O  O589  1  0.80580000  0.67210000  0.48420000  1
  O  O590  1  0.80580000  0.51580000  0.18790000  1
  O  O591  1  0.80580000  0.81210000  0.48420000  1
  O  O592  1  0.80580000  0.67210000  0.18790000  1
  O  O593  1  0.80580000  0.81210000  0.32790000  1
  O  O594  1  0.87550000  0.47170000  0.44490000  1
  O  O595  1  0.87550000  0.55510000  0.52830000  1
  O  O596  1  0.87550000  0.47170000  0.02680000  1
  O  O597  1  0.87550000  0.97320000  0.52830000  1
  O  O598  1  0.87550000  0.55510000  0.02680000  1
  O  O599  1  0.87550000  0.97320000  0.44490000  1
