# generated using pymatgen
data_Gd4Co2H24C42N6O29
_symmetry_space_group_name_H-M   'P 1'
_cell_length_a   11.92480000
_cell_length_b   16.16060000
_cell_length_c   17.52540000
_cell_angle_alpha   90.08800000
_cell_angle_beta   98.56300000
_cell_angle_gamma   109.93900000
_symmetry_Int_Tables_number   1
_chemical_formula_structural   Gd4Co2H24C42N6O29
_chemical_formula_sum   'Gd8 Co4 H48 C84 N12 O58'
_cell_volume   3134.53545299
_cell_formula_units_Z   2
loop_
 _symmetry_equiv_pos_site_id
 _symmetry_equiv_pos_as_xyz
  1  'x, y, z'
loop_
 _atom_site_type_symbol
 _atom_site_label
 _atom_site_symmetry_multiplicity
 _atom_site_fract_x
 _atom_site_fract_y
 _atom_site_fract_z
 _atom_site_occupancy
  Gd  Gd0  1  0.22387000  0.27682000  0.26313000  1
  Gd  Gd1  1  0.42989000  0.20626000  0.42457000  1
  Gd  Gd2  1  0.43717000  0.58396000  0.66373000  1
  Gd  Gd3  1  0.46962000  0.19726000  0.21115000  1
  Gd  Gd4  1  0.53038000  0.80274000  0.78885000  1
  Gd  Gd5  1  0.56283000  0.41604000  0.33627000  1
  Gd  Gd6  1  0.57011000  0.79374000  0.57543000  1
  Gd  Gd7  1  0.77613000  0.72318000  0.73687000  1
  Co  Co8  1  0.05705000  0.68658000  0.13092000  1
  Co  Co9  1  0.14390000  0.32033000  0.60064000  1
  Co  Co10  1  0.85610000  0.67967000  0.39936000  1
  Co  Co11  1  0.94295000  0.31342000  0.86908000  1
  H  H12  1  0.01010000  0.43090000  0.38740000  1
  H  H13  1  0.01740000  0.86630000  0.35630000  1
  H  H14  1  0.03870000  0.16060000  0.26050000  1
  H  H15  1  0.05560000  0.89560000  0.61890000  1
  H  H16  1  0.06540000  0.08960000  0.26500000  1
  H  H17  1  0.07070000  0.25490000  0.01540000  1
  H  H18  1  0.12180000  0.46930000  0.79440000  1
  H  H19  1  0.14420000  0.72510000  0.45650000  1
  H  H20  1  0.15100000  0.53340000  0.19580000  1
  H  H21  1  0.16720000  0.00920000  0.55430000  1
  H  H22  1  0.20890000  0.53180000  0.05720000  1
  H  H23  1  0.21350000  0.50190000  0.43820000  1
  H  H24  1  0.27610000  0.12250000  0.29710000  1
  H  H25  1  0.28660000  0.24560000  0.82130000  1
  H  H26  1  0.29550000  0.13870000  0.70400000  1
  H  H27  1  0.33333333  0.62170000  0.97800000  1
  H  H28  1  0.35330000  0.35310000  0.40830000  1
  H  H29  1  0.35650000  0.01870000  0.73460000  1
  H  H30  1  0.35690000  0.22420000  0.94720000  1
  H  H31  1  0.37990000  0.74050000  0.64260000  1
  H  H32  1  0.41050000  0.35060000  0.18890000  1
  H  H33  1  0.48250000  0.78880000  0.21600000  1
  H  H34  1  0.48640000  0.94470000  0.45340000  1
  H  H35  1  0.49070000  0.34190000  0.74250000  1
  H  H36  1  0.50930000  0.65810000  0.25750000  1
  H  H37  1  0.51360000  0.05530000  0.54660000  1
  H  H38  1  0.51750000  0.21120000  0.78400000  1
  H  H39  1  0.58950000  0.64940000  0.81110000  1
  H  H40  1  0.62010000  0.25950000  0.35740000  1
  H  H41  1  0.64310000  0.77580000  0.05280000  1
  H  H42  1  0.64350000  0.98130000  0.26540000  1
  H  H43  1  0.64670000  0.64690000  0.59170000  1
  H  H44  1  0.66666667  0.37830000  0.02200000  1
  H  H45  1  0.70450000  0.86130000  0.29600000  1
  H  H46  1  0.71340000  0.75440000  0.17870000  1
  H  H47  1  0.72390000  0.87750000  0.70290000  1
  H  H48  1  0.78650000  0.49810000  0.56180000  1
  H  H49  1  0.79110000  0.46820000  0.94280000  1
  H  H50  1  0.83280000  0.99080000  0.44570000  1
  H  H51  1  0.84900000  0.46660000  0.80420000  1
  H  H52  1  0.85580000  0.27490000  0.54350000  1
  H  H53  1  0.87820000  0.53070000  0.20560000  1
  H  H54  1  0.92930000  0.74510000  0.98460000  1
  H  H55  1  0.93460000  0.91040000  0.73500000  1
  H  H56  1  0.94440000  0.10440000  0.38110000  1
  H  H57  1  0.96130000  0.83940000  0.73950000  1
  H  H58  1  0.98260000  0.13370000  0.64370000  1
  H  H59  1  0.98990000  0.56910000  0.61260000  1
  C  C60  1  0.00380000  0.38960000  0.01540000  1
  C  C61  1  0.02690000  0.87230000  0.40990000  1
  C  C62  1  0.02710000  0.18620000  0.47480000  1
  C  C63  1  0.03620000  0.46070000  0.60390000  1
  C  C64  1  0.03930000  0.49050000  0.40290000  1
  C  C65  1  0.04910000  0.89020000  0.56540000  1
  C  C66  1  0.08490000  0.28740000  0.76950000  1
  C  C67  1  0.09190000  0.45290000  0.97110000  1
  C  C68  1  0.10550000  0.95210000  0.44730000  1
  C  C69  1  0.10860000  0.26550000  0.43890000  1
  C  C70  1  0.11490000  0.95800000  0.52670000  1
  C  C71  1  0.11590000  0.25430000  0.97660000  1
  C  C72  1  0.11670000  0.66490000  0.44370000  1
  C  C73  1  0.13830000  0.48260000  0.84750000  1
  C  C74  1  0.13840000  0.26820000  0.84740000  1
  C  C75  1  0.15960000  0.53250000  0.43320000  1
  C  C76  1  0.17120000  0.02610000  0.40090000  1
  C  C77  1  0.17140000  0.50230000  0.62810000  1
  C  C78  1  0.19150000  0.52100000  0.00390000  1
  C  C79  1  0.19900000  0.62240000  0.45620000  1
  C  C80  1  0.21800000  0.58500000  0.20150000  1
  C  C81  1  0.21960000  0.23800000  0.99520000  1
  C  C82  1  0.23900000  0.55380000  0.87850000  1
  C  C83  1  0.24460000  0.24900000  0.86110000  1
  C  C84  1  0.26280000  0.22640000  0.07970000  1
  C  C85  1  0.26610000  0.57370000  0.95710000  1
  C  C86  1  0.27580000  0.81750000  0.16560000  1
  C  C87  1  0.28490000  0.23540000  0.93580000  1
  C  C88  1  0.30210000  0.73600000  0.18660000  1
  C  C89  1  0.32430000  0.60510000  0.82390000  1
  C  C90  1  0.32480000  0.66870000  0.49910000  1
  C  C91  1  0.32740000  0.58120000  0.23230000  1
  C  C92  1  0.34070000  0.12110000  0.67270000  1
  C  C93  1  0.34220000  0.24450000  0.58480000  1
  C  C94  1  0.34630000  0.49580000  0.25680000  1
  C  C95  1  0.37210000  0.16560000  0.60890000  1
  C  C96  1  0.37620000  0.04940000  0.69090000  1
  C  C97  1  0.41660000  0.73680000  0.21380000  1
  C  C98  1  0.43300000  0.65930000  0.23820000  1
  C  C99  1  0.44260000  0.02440000  0.64170000  1
  C  C100  1  0.46900000  0.07190000  0.57900000  1
  C  C101  1  0.47980000  0.94320000  0.65700000  1
  C  C102  1  0.52020000  0.05680000  0.34300000  1
  C  C103  1  0.53100000  0.92810000  0.42100000  1
  C  C104  1  0.55740000  0.97560000  0.35830000  1
  C  C105  1  0.56700000  0.34070000  0.76180000  1
  C  C106  1  0.58340000  0.26320000  0.78620000  1
  C  C107  1  0.62380000  0.95060000  0.30910000  1
  C  C108  1  0.62790000  0.83440000  0.39110000  1
  C  C109  1  0.65370000  0.50420000  0.74320000  1
  C  C110  1  0.65780000  0.75550000  0.41520000  1
  C  C111  1  0.65930000  0.87890000  0.32730000  1
  C  C112  1  0.67260000  0.41880000  0.76770000  1
  C  C113  1  0.67520000  0.33130000  0.50090000  1
  C  C114  1  0.67570000  0.39490000  0.17610000  1
  C  C115  1  0.69790000  0.26400000  0.81340000  1
  C  C116  1  0.71510000  0.76460000  0.06420000  1
  C  C117  1  0.72420000  0.18250000  0.83440000  1
  C  C118  1  0.73390000  0.42630000  0.04290000  1
  C  C119  1  0.73720000  0.77360000  0.92030000  1
  C  C120  1  0.75540000  0.75100000  0.13890000  1
  C  C121  1  0.76100000  0.44620000  0.12150000  1
  C  C122  1  0.78040000  0.76200000  0.00480000  1
  C  C123  1  0.78200000  0.41500000  0.79850000  1
  C  C124  1  0.80100000  0.37760000  0.54380000  1
  C  C125  1  0.80850000  0.47900000  0.99610000  1
  C  C126  1  0.82860000  0.49770000  0.37190000  1
  C  C127  1  0.82880000  0.97390000  0.59910000  1
  C  C128  1  0.84040000  0.46750000  0.56680000  1
  C  C129  1  0.86160000  0.73180000  0.15260000  1
  C  C130  1  0.86170000  0.51740000  0.15250000  1
  C  C131  1  0.88330000  0.33510000  0.55630000  1
  C  C132  1  0.88410000  0.74570000  0.02340000  1
  C  C133  1  0.88510000  0.04200000  0.47330000  1
  C  C134  1  0.89140000  0.73450000  0.56110000  1
  C  C135  1  0.89450000  0.04790000  0.55270000  1
  C  C136  1  0.90810000  0.54710000  0.02890000  1
  C  C137  1  0.91510000  0.71260000  0.23050000  1
  C  C138  1  0.95090000  0.10980000  0.43460000  1
  C  C139  1  0.96070000  0.50950000  0.59710000  1
  C  C140  1  0.96380000  0.53930000  0.39610000  1
  C  C141  1  0.97290000  0.81380000  0.52520000  1
  C  C142  1  0.97310000  0.12770000  0.59010000  1
  C  C143  1  0.99620000  0.61040000  0.98460000  1
  N  N144  1  0.00090000  0.62680000  0.41470000  1
  N  N145  1  0.03510000  0.19540000  0.55230000  1
  N  N146  1  0.06430000  0.43300000  0.89340000  1
  N  N147  1  0.07540000  0.26960000  0.90480000  1
  N  N148  1  0.20260000  0.66140000  0.17870000  1
  N  N149  1  0.43540000  0.14030000  0.56090000  1
  N  N150  1  0.56460000  0.85970000  0.43910000  1
  N  N151  1  0.79740000  0.33860000  0.82130000  1
  N  N152  1  0.92460000  0.73040000  0.09520000  1
  N  N153  1  0.93570000  0.56700000  0.10660000  1
  N  N154  1  0.96490000  0.80460000  0.44770000  1
  N  N155  1  0.99910000  0.37320000  0.58530000  1
  O  O156  1  0.01190000  0.69450000  0.23110000  1
  O  O157  1  0.01650000  0.40230000  0.08730000  1
  O  O158  1  0.06270000  0.12870000  0.23580000  1
  O  O159  1  0.08140000  0.67150000  0.02600000  1
  O  O160  1  0.11610000  0.25730000  0.36940000  1
  O  O161  1  0.13300000  0.28550000  0.71380000  1
  O  O162  1  0.15060000  0.01340000  0.32970000  1
  O  O163  1  0.15980000  0.33350000  0.48190000  1
  O  O164  1  0.16370000  0.80630000  0.14110000  1
  O  O165  1  0.20190000  0.23830000  0.12770000  1
  O  O166  1  0.21710000  0.58500000  0.63940000  1
  O  O167  1  0.23610000  0.45420000  0.63030000  1
  O  O168  1  0.24150000  0.09570000  0.43820000  1
  O  O169  1  0.25620000  0.42950000  0.25020000  1
  O  O170  1  0.29130000  0.27630000  0.62970000  1
  O  O171  1  0.32150000  0.17280000  0.29260000  1
  O  O172  1  0.34220000  0.55660000  0.77500000  1
  O  O173  1  0.35720000  0.20720000  0.09190000  1
  O  O174  1  0.35730000  0.88870000  0.17540000  1
  O  O175  1  0.36190000  0.75080000  0.50580000  1
  O  O176  1  0.37000000  0.68670000  0.83360000  1
  O  O177  1  0.37310000  0.27770000  0.52330000  1
  O  O178  1  0.37670000  0.32950000  0.37550000  1
  O  O179  1  0.38600000  0.62210000  0.52740000  1
  O  O180  1  0.41980000  0.32690000  0.22940000  1
  O  O181  1  0.43710000  0.72970000  0.66666667  1
  O  O182  1  0.45410000  0.50360000  0.28070000  1
  O  O183  1  0.46480000  0.90850000  0.71960000  1
  O  O184  1  0.47620000  0.08130000  0.39570000  1
  O  O185  1  0.52380000  0.91870000  0.60430000  1
  O  O186  1  0.53520000  0.09150000  0.28040000  1
  O  O187  1  0.54590000  0.49640000  0.71930000  1
  O  O188  1  0.56290000  0.27030000  0.33340000  1
  O  O189  1  0.58020000  0.67310000  0.77060000  1
  O  O190  1  0.61400000  0.37790000  0.47260000  1
  O  O191  1  0.62330000  0.67050000  0.62450000  1
  O  O192  1  0.62690000  0.72230000  0.47670000  1
  O  O193  1  0.63000000  0.31330000  0.16640000  1
  O  O194  1  0.63810000  0.24920000  0.49420000  1
  O  O195  1  0.64270000  0.11130000  0.82460000  1
  O  O196  1  0.64280000  0.79280000  0.90810000  1
  O  O197  1  0.65780000  0.44340000  0.22500000  1
  O  O198  1  0.67850000  0.82720000  0.70740000  1
  O  O199  1  0.70870000  0.72370000  0.37030000  1
  O  O200  1  0.74380000  0.57050000  0.74980000  1
  O  O201  1  0.75850000  0.90430000  0.56180000  1
  O  O202  1  0.76390000  0.54580000  0.36970000  1
  O  O203  1  0.78290000  0.41500000  0.36060000  1
  O  O204  1  0.79810000  0.76170000  0.87230000  1
  O  O205  1  0.83630000  0.19370000  0.85890000  1
  O  O206  1  0.84020000  0.66650000  0.51810000  1
  O  O207  1  0.84940000  0.98660000  0.67030000  1
  O  O208  1  0.86700000  0.71450000  0.28620000  1
  O  O209  1  0.88390000  0.74270000  0.63060000  1
  O  O210  1  0.91860000  0.32850000  0.97400000  1
  O  O211  1  0.93730000  0.87130000  0.76420000  1
  O  O212  1  0.98350000  0.59770000  0.91270000  1
  O  O213  1  0.98810000  0.30550000  0.76890000  1
