# generated using pymatgen
data_Co7H60C76(N5F3)4
_symmetry_space_group_name_H-M   'P 1'
_cell_length_a   24.50630000
_cell_length_b   24.50630000
_cell_length_c   24.50630000
_cell_angle_alpha   90.00000000
_cell_angle_beta   90.00000000
_cell_angle_gamma   90.00000000
_symmetry_Int_Tables_number   1
_chemical_formula_structural   Co7H60C76(N5F3)4
_chemical_formula_sum   'Co28 H240 C304 N80 F48'
_cell_volume   14717.47264247
_cell_formula_units_Z   4
loop_
 _symmetry_equiv_pos_site_id
 _symmetry_equiv_pos_as_xyz
  1  'x, y, z'
loop_
 _atom_site_type_symbol
 _atom_site_label
 _atom_site_symmetry_multiplicity
 _atom_site_fract_x
 _atom_site_fract_y
 _atom_site_fract_z
 _atom_site_occupancy
  Co  Co0  1  0.00000000  0.00000000  0.00000000  1
  Co  Co1  1  0.00000000  0.50000000  0.50000000  1
  Co  Co2  1  0.02906000  0.06681000  0.89611000  1
  Co  Co3  1  0.02906000  0.43319000  0.39611000  1
  Co  Co4  1  0.06681000  0.60389000  0.52906000  1
  Co  Co5  1  0.06681000  0.89611000  0.02906000  1
  Co  Co6  1  0.10389000  0.52906000  0.43319000  1
  Co  Co7  1  0.10389000  0.97094000  0.93319000  1
  Co  Co8  1  0.39611000  0.02906000  0.43319000  1
  Co  Co9  1  0.39611000  0.47094000  0.93319000  1
  Co  Co10  1  0.43319000  0.10389000  0.52906000  1
  Co  Co11  1  0.43319000  0.39611000  0.02906000  1
  Co  Co12  1  0.47094000  0.56681000  0.89611000  1
  Co  Co13  1  0.47094000  0.93319000  0.39611000  1
  Co  Co14  1  0.50000000  0.00000000  0.50000000  1
  Co  Co15  1  0.50000000  0.50000000  0.00000000  1
  Co  Co16  1  0.52906000  0.06681000  0.60389000  1
  Co  Co17  1  0.52906000  0.43319000  0.10389000  1
  Co  Co18  1  0.56681000  0.60389000  0.97094000  1
  Co  Co19  1  0.56681000  0.89611000  0.47094000  1
  Co  Co20  1  0.60389000  0.52906000  0.06681000  1
  Co  Co21  1  0.60389000  0.97094000  0.56681000  1
  Co  Co22  1  0.89611000  0.02906000  0.06681000  1
  Co  Co23  1  0.89611000  0.47094000  0.56681000  1
  Co  Co24  1  0.93319000  0.10389000  0.97094000  1
  Co  Co25  1  0.93319000  0.39611000  0.47094000  1
  Co  Co26  1  0.97094000  0.56681000  0.60389000  1
  Co  Co27  1  0.97094000  0.93319000  0.10389000  1
  H  H28  1  0.00140000  0.66090000  0.67790000  1
  H  H29  1  0.00140000  0.83910000  0.17790000  1
  H  H30  1  0.00580000  0.69290000  0.46230000  1
  H  H31  1  0.00580000  0.80710000  0.96230000  1
  H  H32  1  0.02210000  0.72620000  0.91840000  1
  H  H33  1  0.02210000  0.77380000  0.41840000  1
  H  H34  1  0.03770000  0.50580000  0.69290000  1
  H  H35  1  0.03770000  0.99420000  0.19290000  1
  H  H36  1  0.04340000  0.68080000  0.75940000  1
  H  H37  1  0.04340000  0.81920000  0.25940000  1
  H  H38  1  0.05410000  0.68170000  0.84580000  1
  H  H39  1  0.05410000  0.81830000  0.34580000  1
  H  H40  1  0.06590000  0.61560000  0.35140000  1
  H  H41  1  0.06590000  0.88440000  0.85140000  1
  H  H42  1  0.08160000  0.52210000  0.77380000  1
  H  H43  1  0.08160000  0.97790000  0.27380000  1
  H  H44  1  0.08210000  0.70940000  0.59100000  1
  H  H45  1  0.08210000  0.79060000  0.09100000  1
  H  H46  1  0.09100000  0.08210000  0.79060000  1
  H  H47  1  0.09100000  0.41790000  0.29060000  1
  H  H48  1  0.09750000  0.69230000  0.30670000  1
  H  H49  1  0.09750000  0.80770000  0.80670000  1
  H  H50  1  0.11560000  0.14860000  0.93410000  1
  H  H51  1  0.11560000  0.35140000  0.43410000  1
  H  H52  1  0.12910000  0.74730000  0.66310000  1
  H  H53  1  0.12910000  0.75270000  0.16310000  1
  H  H54  1  0.14070000  0.73840000  0.24710000  1
  H  H55  1  0.14070000  0.76160000  0.74710000  1
  H  H56  1  0.14860000  0.56590000  0.61560000  1
  H  H57  1  0.14860000  0.93410000  0.11560000  1
  H  H58  1  0.15420000  0.55410000  0.81830000  1
  H  H59  1  0.15420000  0.94590000  0.31830000  1
  H  H60  1  0.16090000  0.67790000  0.49860000  1
  H  H61  1  0.16090000  0.82210000  0.99860000  1
  H  H62  1  0.16310000  0.12910000  0.75270000  1
  H  H63  1  0.16310000  0.37090000  0.25270000  1
  H  H64  1  0.17790000  0.00140000  0.83910000  1
  H  H65  1  0.17790000  0.49860000  0.33910000  1
  H  H66  1  0.18080000  0.74060000  0.95660000  1
  H  H67  1  0.18080000  0.75940000  0.45660000  1
  H  H68  1  0.18170000  0.65420000  0.94590000  1
  H  H69  1  0.18170000  0.84580000  0.44590000  1
  H  H70  1  0.19230000  0.19330000  0.90250000  1
  H  H71  1  0.19230000  0.30670000  0.40250000  1
  H  H72  1  0.19290000  0.03770000  0.99420000  1
  H  H73  1  0.19290000  0.46230000  0.49420000  1
  H  H74  1  0.19330000  0.59750000  0.69230000  1
  H  H75  1  0.19330000  0.90250000  0.19230000  1
  H  H76  1  0.20940000  0.59100000  0.41790000  1
  H  H77  1  0.20940000  0.90900000  0.91790000  1
  H  H78  1  0.22620000  0.58160000  0.97790000  1
  H  H79  1  0.22620000  0.91840000  0.47790000  1
  H  H80  1  0.23840000  0.24710000  0.35930000  1
  H  H81  1  0.23840000  0.25290000  0.85930000  1
  H  H82  1  0.24060000  0.54340000  0.81920000  1
  H  H83  1  0.24060000  0.95660000  0.31920000  1
  H  H84  1  0.24710000  0.14070000  0.73840000  1
  H  H85  1  0.24710000  0.35930000  0.23840000  1
  H  H86  1  0.24730000  0.66310000  0.37090000  1
  H  H87  1  0.24730000  0.83690000  0.87090000  1
  H  H88  1  0.25270000  0.16310000  0.37090000  1
  H  H89  1  0.25270000  0.33690000  0.87090000  1
  H  H90  1  0.25290000  0.64070000  0.73840000  1
  H  H91  1  0.25290000  0.85930000  0.23840000  1
  H  H92  1  0.25940000  0.04340000  0.81920000  1
  H  H93  1  0.25940000  0.45660000  0.31920000  1
  H  H94  1  0.26160000  0.74710000  0.35930000  1
  H  H95  1  0.26160000  0.75290000  0.85930000  1
  H  H96  1  0.27380000  0.08160000  0.97790000  1
  H  H97  1  0.27380000  0.41840000  0.47790000  1
  H  H98  1  0.29060000  0.09100000  0.41790000  1
  H  H99  1  0.29060000  0.40900000  0.91790000  1
  H  H100  1  0.30670000  0.09750000  0.69230000  1
  H  H101  1  0.30670000  0.40250000  0.19230000  1
  H  H102  1  0.30710000  0.53770000  0.99420000  1
  H  H103  1  0.30710000  0.96230000  0.49420000  1
  H  H104  1  0.30770000  0.69330000  0.90250000  1
  H  H105  1  0.30770000  0.80670000  0.40250000  1
  H  H106  1  0.31830000  0.15420000  0.94590000  1
  H  H107  1  0.31830000  0.34580000  0.44590000  1
  H  H108  1  0.31920000  0.24060000  0.95660000  1
  H  H109  1  0.31920000  0.25940000  0.45660000  1
  H  H110  1  0.32210000  0.50140000  0.83910000  1
  H  H111  1  0.32210000  0.99860000  0.33910000  1
  H  H112  1  0.33690000  0.62910000  0.75270000  1
  H  H113  1  0.33690000  0.87090000  0.25270000  1
  H  H114  1  0.33910000  0.17790000  0.49860000  1
  H  H115  1  0.33910000  0.32210000  0.99860000  1
  H  H116  1  0.34580000  0.05410000  0.81830000  1
  H  H117  1  0.34580000  0.44590000  0.31830000  1
  H  H118  1  0.35140000  0.06590000  0.61560000  1
  H  H119  1  0.35140000  0.43410000  0.11560000  1
  H  H120  1  0.35930000  0.23840000  0.24710000  1
  H  H121  1  0.35930000  0.26160000  0.74710000  1
  H  H122  1  0.37090000  0.24730000  0.66310000  1
  H  H123  1  0.37090000  0.25270000  0.16310000  1
  H  H124  1  0.38440000  0.64860000  0.93410000  1
  H  H125  1  0.38440000  0.85140000  0.43410000  1
  H  H126  1  0.40250000  0.19230000  0.30670000  1
  H  H127  1  0.40250000  0.30770000  0.80670000  1
  H  H128  1  0.40900000  0.58210000  0.79060000  1
  H  H129  1  0.40900000  0.91790000  0.29060000  1
  H  H130  1  0.41790000  0.20940000  0.59100000  1
  H  H131  1  0.41790000  0.29060000  0.09100000  1
  H  H132  1  0.41840000  0.02210000  0.77380000  1
  H  H133  1  0.41840000  0.47790000  0.27380000  1
  H  H134  1  0.43410000  0.11560000  0.35140000  1
  H  H135  1  0.43410000  0.38440000  0.85140000  1
  H  H136  1  0.44590000  0.18170000  0.84580000  1
  H  H137  1  0.44590000  0.31830000  0.34580000  1
  H  H138  1  0.45660000  0.18080000  0.75940000  1
  H  H139  1  0.45660000  0.31920000  0.25940000  1
  H  H140  1  0.46230000  0.00580000  0.69290000  1
  H  H141  1  0.46230000  0.49420000  0.19290000  1
  H  H142  1  0.47790000  0.22620000  0.91840000  1
  H  H143  1  0.47790000  0.27380000  0.41840000  1
  H  H144  1  0.49420000  0.19290000  0.46230000  1
  H  H145  1  0.49420000  0.30710000  0.96230000  1
  H  H146  1  0.49860000  0.16090000  0.67790000  1
  H  H147  1  0.49860000  0.33910000  0.17790000  1
  H  H148  1  0.50140000  0.66090000  0.82210000  1
  H  H149  1  0.50140000  0.83910000  0.32210000  1
  H  H150  1  0.50580000  0.69290000  0.03770000  1
  H  H151  1  0.50580000  0.80710000  0.53770000  1
  H  H152  1  0.52210000  0.72620000  0.58160000  1
  H  H153  1  0.52210000  0.77380000  0.08160000  1
  H  H154  1  0.53770000  0.50580000  0.80710000  1
  H  H155  1  0.53770000  0.99420000  0.30710000  1
  H  H156  1  0.54340000  0.68080000  0.74060000  1
  H  H157  1  0.54340000  0.81920000  0.24060000  1
  H  H158  1  0.55410000  0.68170000  0.65420000  1
  H  H159  1  0.55410000  0.81830000  0.15420000  1
  H  H160  1  0.56590000  0.61560000  0.14860000  1
  H  H161  1  0.56590000  0.88440000  0.64860000  1
  H  H162  1  0.58160000  0.52210000  0.72620000  1
  H  H163  1  0.58160000  0.97790000  0.22620000  1
  H  H164  1  0.58210000  0.70940000  0.90900000  1
  H  H165  1  0.58210000  0.79060000  0.40900000  1
  H  H166  1  0.59100000  0.08210000  0.70940000  1
  H  H167  1  0.59100000  0.41790000  0.20940000  1
  H  H168  1  0.59750000  0.69230000  0.19330000  1
  H  H169  1  0.59750000  0.80770000  0.69330000  1
  H  H170  1  0.61560000  0.14860000  0.56590000  1
  H  H171  1  0.61560000  0.35140000  0.06590000  1
  H  H172  1  0.62910000  0.74730000  0.83690000  1
  H  H173  1  0.62910000  0.75270000  0.33690000  1
  H  H174  1  0.64070000  0.73840000  0.25290000  1
  H  H175  1  0.64070000  0.76160000  0.75290000  1
  H  H176  1  0.64860000  0.56590000  0.88440000  1
  H  H177  1  0.64860000  0.93410000  0.38440000  1
  H  H178  1  0.65420000  0.55410000  0.68170000  1
  H  H179  1  0.65420000  0.94590000  0.18170000  1
  H  H180  1  0.66090000  0.67790000  0.00140000  1
  H  H181  1  0.66090000  0.82210000  0.50140000  1
  H  H182  1  0.66310000  0.12910000  0.74730000  1
  H  H183  1  0.66310000  0.37090000  0.24730000  1
  H  H184  1  0.67790000  0.00140000  0.66090000  1
  H  H185  1  0.67790000  0.49860000  0.16090000  1
  H  H186  1  0.68080000  0.74060000  0.54340000  1
  H  H187  1  0.68080000  0.75940000  0.04340000  1
  H  H188  1  0.68170000  0.65420000  0.55410000  1
  H  H189  1  0.68170000  0.84580000  0.05410000  1
  H  H190  1  0.69230000  0.19330000  0.59750000  1
  H  H191  1  0.69230000  0.30670000  0.09750000  1
  H  H192  1  0.69290000  0.03770000  0.50580000  1
  H  H193  1  0.69290000  0.46230000  0.00580000  1
  H  H194  1  0.69330000  0.59750000  0.80770000  1
  H  H195  1  0.69330000  0.90250000  0.30770000  1
  H  H196  1  0.70940000  0.59100000  0.08210000  1
  H  H197  1  0.70940000  0.90900000  0.58210000  1
  H  H198  1  0.72620000  0.58160000  0.52210000  1
  H  H199  1  0.72620000  0.91840000  0.02210000  1
  H  H200  1  0.73840000  0.24710000  0.14070000  1
  H  H201  1  0.73840000  0.25290000  0.64070000  1
  H  H202  1  0.74060000  0.54340000  0.68080000  1
  H  H203  1  0.74060000  0.95660000  0.18080000  1
  H  H204  1  0.74710000  0.14070000  0.76160000  1
  H  H205  1  0.74710000  0.35930000  0.26160000  1
  H  H206  1  0.74730000  0.66310000  0.12910000  1
  H  H207  1  0.74730000  0.83690000  0.62910000  1
  H  H208  1  0.75270000  0.16310000  0.12910000  1
  H  H209  1  0.75270000  0.33690000  0.62910000  1
  H  H210  1  0.75290000  0.64070000  0.76160000  1
  H  H211  1  0.75290000  0.85930000  0.26160000  1
  H  H212  1  0.75940000  0.04340000  0.68080000  1
  H  H213  1  0.75940000  0.45660000  0.18080000  1
  H  H214  1  0.76160000  0.74710000  0.14070000  1
  H  H215  1  0.76160000  0.75290000  0.64070000  1
  H  H216  1  0.77380000  0.08160000  0.52210000  1
  H  H217  1  0.77380000  0.41840000  0.02210000  1
  H  H218  1  0.79060000  0.09100000  0.08210000  1
  H  H219  1  0.79060000  0.40900000  0.58210000  1
  H  H220  1  0.80670000  0.09750000  0.80770000  1
  H  H221  1  0.80670000  0.40250000  0.30770000  1
  H  H222  1  0.80710000  0.53770000  0.50580000  1
  H  H223  1  0.80710000  0.96230000  0.00580000  1
  H  H224  1  0.80770000  0.69330000  0.59750000  1
  H  H225  1  0.80770000  0.80670000  0.09750000  1
  H  H226  1  0.81830000  0.15420000  0.55410000  1
  H  H227  1  0.81830000  0.34580000  0.05410000  1
  H  H228  1  0.81920000  0.24060000  0.54340000  1
  H  H229  1  0.81920000  0.25940000  0.04340000  1
  H  H230  1  0.82210000  0.50140000  0.66090000  1
  H  H231  1  0.82210000  0.99860000  0.16090000  1
  H  H232  1  0.83690000  0.62910000  0.74730000  1
  H  H233  1  0.83690000  0.87090000  0.24730000  1
  H  H234  1  0.83910000  0.17790000  0.00140000  1
  H  H235  1  0.83910000  0.32210000  0.50140000  1
  H  H236  1  0.84580000  0.05410000  0.68170000  1
  H  H237  1  0.84580000  0.44590000  0.18170000  1
  H  H238  1  0.85140000  0.06590000  0.88440000  1
  H  H239  1  0.85140000  0.43410000  0.38440000  1
  H  H240  1  0.85930000  0.23840000  0.25290000  1
  H  H241  1  0.85930000  0.26160000  0.75290000  1
  H  H242  1  0.87090000  0.24730000  0.83690000  1
  H  H243  1  0.87090000  0.25270000  0.33690000  1
  H  H244  1  0.88440000  0.64860000  0.56590000  1
  H  H245  1  0.88440000  0.85140000  0.06590000  1
  H  H246  1  0.90250000  0.19230000  0.19330000  1
  H  H247  1  0.90250000  0.30770000  0.69330000  1
  H  H248  1  0.90900000  0.58210000  0.70940000  1
  H  H249  1  0.90900000  0.91790000  0.20940000  1
  H  H250  1  0.91790000  0.20940000  0.90900000  1
  H  H251  1  0.91790000  0.29060000  0.40900000  1
  H  H252  1  0.91840000  0.02210000  0.72620000  1
  H  H253  1  0.91840000  0.47790000  0.22620000  1
  H  H254  1  0.93410000  0.11560000  0.14860000  1
  H  H255  1  0.93410000  0.38440000  0.64860000  1
  H  H256  1  0.94590000  0.18170000  0.65420000  1
  H  H257  1  0.94590000  0.31830000  0.15420000  1
  H  H258  1  0.95660000  0.18080000  0.74060000  1
  H  H259  1  0.95660000  0.31920000  0.24060000  1
  H  H260  1  0.96230000  0.00580000  0.80710000  1
  H  H261  1  0.96230000  0.49420000  0.30710000  1
  H  H262  1  0.97790000  0.22620000  0.58160000  1
  H  H263  1  0.97790000  0.27380000  0.08160000  1
  H  H264  1  0.99420000  0.19290000  0.03770000  1
  H  H265  1  0.99420000  0.30710000  0.53770000  1
  H  H266  1  0.99860000  0.16090000  0.82210000  1
  H  H267  1  0.99860000  0.33910000  0.32210000  1
  C  C268  1  0.01750000  0.63180000  0.69790000  1
  C  C269  1  0.01750000  0.86820000  0.19790000  1
  C  C270  1  0.03870000  0.54200000  0.70650000  1
  C  C271  1  0.03870000  0.95800000  0.20650000  1
  C  C272  1  0.04200000  0.70650000  0.46130000  1
  C  C273  1  0.04200000  0.79350000  0.96130000  1
  C  C274  1  0.04310000  0.64430000  0.74620000  1
  C  C275  1  0.04310000  0.85570000  0.24620000  1
  C  C276  1  0.05150000  0.74540000  0.93470000  1
  C  C277  1  0.05150000  0.75460000  0.43470000  1
  C  C278  1  0.06530000  0.55150000  0.75460000  1
  C  C279  1  0.06530000  0.94850000  0.25460000  1
  C  C280  1  0.06840000  0.60320000  0.77520000  1
  C  C281  1  0.06840000  0.89680000  0.27520000  1
  C  C282  1  0.09920000  0.61570000  0.82510000  1
  C  C283  1  0.09920000  0.88430000  0.32510000  1
  C  C284  1  0.10290000  0.62610000  0.35620000  1
  C  C285  1  0.10290000  0.87390000  0.85620000  1
  C  C286  1  0.10320000  0.72480000  0.93160000  1
  C  C287  1  0.10320000  0.77520000  0.43160000  1
  C  C288  1  0.10580000  0.68660000  0.61150000  1
  C  C289  1  0.10580000  0.81340000  0.11150000  1
  C  C290  1  0.11150000  0.10580000  0.81340000  1
  C  C291  1  0.11150000  0.39420000  0.31340000  1
  C  C292  1  0.11570000  0.67490000  0.90080000  1
  C  C293  1  0.11570000  0.82510000  0.40080000  1
  C  C294  1  0.12160000  0.67190000  0.32910000  1
  C  C295  1  0.12160000  0.82810000  0.82910000  1
  C  C296  1  0.12610000  0.14380000  0.89710000  1
  C  C297  1  0.12610000  0.35620000  0.39710000  1
  C  C298  1  0.13180000  0.69790000  0.48250000  1
  C  C299  1  0.13180000  0.80210000  0.98250000  1
  C  C300  1  0.13260000  0.70950000  0.65510000  1
  C  C301  1  0.13260000  0.79050000  0.15510000  1
  C  C302  1  0.14380000  0.60290000  0.62610000  1
  C  C303  1  0.14380000  0.89710000  0.12610000  1
  C  C304  1  0.14430000  0.58500000  0.83950000  1
  C  C305  1  0.14430000  0.74620000  0.45690000  1
  C  C306  1  0.14430000  0.75380000  0.95690000  1
  C  C307  1  0.14430000  0.91500000  0.33950000  1
  C  C308  1  0.15510000  0.13260000  0.79050000  1
  C  C309  1  0.15510000  0.36740000  0.29050000  1
  C  C310  1  0.16550000  0.67510000  0.68770000  1
  C  C311  1  0.16550000  0.82490000  0.18770000  1
  C  C312  1  0.17090000  0.62160000  0.67190000  1
  C  C313  1  0.17090000  0.87840000  0.17190000  1
  C  C314  1  0.17190000  0.17090000  0.87840000  1
  C  C315  1  0.17190000  0.32910000  0.37840000  1
  C  C316  1  0.17490000  0.59920000  0.88430000  1
  C  C317  1  0.17490000  0.90080000  0.38430000  1
  C  C318  1  0.17510000  0.68770000  0.33450000  1
  C  C319  1  0.17510000  0.81230000  0.83450000  1
  C  C320  1  0.18660000  0.61150000  0.39420000  1
  C  C321  1  0.18660000  0.88850000  0.89420000  1
  C  C322  1  0.18770000  0.16550000  0.82490000  1
  C  C323  1  0.18770000  0.33450000  0.32490000  1
  C  C324  1  0.19260000  0.69770000  0.73630000  1
  C  C325  1  0.19260000  0.80230000  0.23630000  1
  C  C326  1  0.19770000  0.73630000  0.30740000  1
  C  C327  1  0.19770000  0.76370000  0.80740000  1
  C  C328  1  0.19790000  0.01750000  0.86820000  1
  C  C329  1  0.19790000  0.48250000  0.36820000  1
  C  C330  1  0.20650000  0.03870000  0.95800000  1
  C  C331  1  0.20650000  0.46130000  0.45800000  1
  C  C332  1  0.20950000  0.65510000  0.36740000  1
  C  C333  1  0.20950000  0.84490000  0.86740000  1
  C  C334  1  0.22480000  0.56840000  0.89680000  1
  C  C335  1  0.22480000  0.93160000  0.39680000  1
  C  C336  1  0.23630000  0.19260000  0.80230000  1
  C  C337  1  0.23630000  0.30740000  0.30230000  1
  C  C338  1  0.24380000  0.73860000  0.82800000  1
  C  C339  1  0.24380000  0.76140000  0.32800000  1
  C  C340  1  0.24540000  0.56530000  0.94850000  1
  C  C341  1  0.24540000  0.93470000  0.44850000  1
  C  C342  1  0.24620000  0.04310000  0.85570000  1
  C  C343  1  0.24620000  0.45690000  0.35570000  1
  C  C344  1  0.25380000  0.54310000  0.85570000  1
  C  C345  1  0.25380000  0.95690000  0.35570000  1
  C  C346  1  0.25460000  0.06530000  0.94850000  1
  C  C347  1  0.25460000  0.43470000  0.44850000  1
  C  C348  1  0.25620000  0.23860000  0.82800000  1
  C  C349  1  0.25620000  0.26140000  0.32800000  1
  C  C350  1  0.26370000  0.69260000  0.80230000  1
  C  C351  1  0.26370000  0.80740000  0.30230000  1
  C  C352  1  0.27520000  0.06840000  0.89680000  1
  C  C353  1  0.27520000  0.43160000  0.39680000  1
  C  C354  1  0.29050000  0.15510000  0.36740000  1
  C  C355  1  0.29050000  0.34490000  0.86740000  1
  C  C356  1  0.29350000  0.53870000  0.95800000  1
  C  C357  1  0.29350000  0.96130000  0.45800000  1
  C  C358  1  0.30210000  0.51750000  0.86820000  1
  C  C359  1  0.30210000  0.98250000  0.36820000  1
  C  C360  1  0.30230000  0.23630000  0.30740000  1
  C  C361  1  0.30230000  0.26370000  0.80740000  1
  C  C362  1  0.30740000  0.19770000  0.73630000  1
  C  C363  1  0.30740000  0.30230000  0.23630000  1
  C  C364  1  0.31230000  0.66550000  0.82490000  1
  C  C365  1  0.31230000  0.83450000  0.32490000  1
  C  C366  1  0.31340000  0.11150000  0.39420000  1
  C  C367  1  0.31340000  0.38850000  0.89420000  1
  C  C368  1  0.32490000  0.18770000  0.33450000  1
  C  C369  1  0.32490000  0.31230000  0.83450000  1
  C  C370  1  0.32510000  0.09920000  0.88430000  1
  C  C371  1  0.32510000  0.40080000  0.38430000  1
  C  C372  1  0.32810000  0.67090000  0.87840000  1
  C  C373  1  0.32810000  0.82910000  0.37840000  1
  C  C374  1  0.32910000  0.12160000  0.67190000  1
  C  C375  1  0.32910000  0.37840000  0.17190000  1
  C  C376  1  0.33450000  0.17510000  0.68770000  1
  C  C377  1  0.33450000  0.32490000  0.18770000  1
  C  C378  1  0.34490000  0.63260000  0.79050000  1
  C  C379  1  0.34490000  0.86740000  0.29050000  1
  C  C380  1  0.35570000  0.08500000  0.83950000  1
  C  C381  1  0.35570000  0.24620000  0.45690000  1
  C  C382  1  0.35570000  0.25380000  0.95690000  1
  C  C383  1  0.35570000  0.41500000  0.33950000  1
  C  C384  1  0.35620000  0.10290000  0.62610000  1
  C  C385  1  0.35620000  0.39710000  0.12610000  1
  C  C386  1  0.36740000  0.20950000  0.65510000  1
  C  C387  1  0.36740000  0.29050000  0.15510000  1
  C  C388  1  0.36820000  0.19790000  0.48250000  1
  C  C389  1  0.36820000  0.30210000  0.98250000  1
  C  C390  1  0.37390000  0.64380000  0.89710000  1
  C  C391  1  0.37390000  0.85620000  0.39710000  1
  C  C392  1  0.37840000  0.17190000  0.32910000  1
  C  C393  1  0.37840000  0.32810000  0.82910000  1
  C  C394  1  0.38430000  0.17490000  0.90080000  1
  C  C395  1  0.38430000  0.32510000  0.40080000  1
  C  C396  1  0.38850000  0.60580000  0.81340000  1
  C  C397  1  0.38850000  0.89420000  0.31340000  1
  C  C398  1  0.39420000  0.18660000  0.61150000  1
  C  C399  1  0.39420000  0.31340000  0.11150000  1
  C  C400  1  0.39680000  0.22480000  0.93160000  1
  C  C401  1  0.39680000  0.27520000  0.43160000  1
  C  C402  1  0.39710000  0.12610000  0.35620000  1
  C  C403  1  0.39710000  0.37390000  0.85620000  1
  C  C404  1  0.40080000  0.11570000  0.82510000  1
  C  C405  1  0.40080000  0.38430000  0.32510000  1
  C  C406  1  0.43160000  0.10320000  0.77520000  1
  C  C407  1  0.43160000  0.39680000  0.27520000  1
  C  C408  1  0.43470000  0.05150000  0.75460000  1
  C  C409  1  0.43470000  0.44850000  0.25460000  1
  C  C410  1  0.44850000  0.24540000  0.93470000  1
  C  C411  1  0.44850000  0.25460000  0.43470000  1
  C  C412  1  0.45690000  0.14430000  0.74620000  1
  C  C413  1  0.45690000  0.35570000  0.24620000  1
  C  C414  1  0.45800000  0.20650000  0.46130000  1
  C  C415  1  0.45800000  0.29350000  0.96130000  1
  C  C416  1  0.46130000  0.04200000  0.70650000  1
  C  C417  1  0.46130000  0.45800000  0.20650000  1
  C  C418  1  0.48250000  0.13180000  0.69790000  1
  C  C419  1  0.48250000  0.36820000  0.19790000  1
  C  C420  1  0.51750000  0.63180000  0.80210000  1
  C  C421  1  0.51750000  0.86820000  0.30210000  1
  C  C422  1  0.53870000  0.54200000  0.79350000  1
  C  C423  1  0.53870000  0.95800000  0.29350000  1
  C  C424  1  0.54200000  0.70650000  0.03870000  1
  C  C425  1  0.54200000  0.79350000  0.53870000  1
  C  C426  1  0.54310000  0.64430000  0.75380000  1
  C  C427  1  0.54310000  0.85570000  0.25380000  1
  C  C428  1  0.55150000  0.74540000  0.56530000  1
  C  C429  1  0.55150000  0.75460000  0.06530000  1
  C  C430  1  0.56530000  0.55150000  0.74540000  1
  C  C431  1  0.56530000  0.94850000  0.24540000  1
  C  C432  1  0.56840000  0.60320000  0.72480000  1
  C  C433  1  0.56840000  0.89680000  0.22480000  1
  C  C434  1  0.59920000  0.61570000  0.67490000  1
  C  C435  1  0.59920000  0.88430000  0.17490000  1
  C  C436  1  0.60290000  0.62610000  0.14380000  1
  C  C437  1  0.60290000  0.87390000  0.64380000  1
  C  C438  1  0.60320000  0.72480000  0.56840000  1
  C  C439  1  0.60320000  0.77520000  0.06840000  1
  C  C440  1  0.60580000  0.68660000  0.88850000  1
  C  C441  1  0.60580000  0.81340000  0.38850000  1
  C  C442  1  0.61150000  0.10580000  0.68660000  1
  C  C443  1  0.61150000  0.39420000  0.18660000  1
  C  C444  1  0.61570000  0.67490000  0.59920000  1
  C  C445  1  0.61570000  0.82510000  0.09920000  1
  C  C446  1  0.62160000  0.67190000  0.17090000  1
  C  C447  1  0.62160000  0.82810000  0.67090000  1
  C  C448  1  0.62610000  0.14380000  0.60290000  1
  C  C449  1  0.62610000  0.35620000  0.10290000  1
  C  C450  1  0.63180000  0.69790000  0.01750000  1
  C  C451  1  0.63180000  0.80210000  0.51750000  1
  C  C452  1  0.63260000  0.70950000  0.84490000  1
  C  C453  1  0.63260000  0.79050000  0.34490000  1
  C  C454  1  0.64380000  0.60290000  0.87390000  1
  C  C455  1  0.64380000  0.89710000  0.37390000  1
  C  C456  1  0.64430000  0.58500000  0.66050000  1
  C  C457  1  0.64430000  0.74620000  0.04310000  1
  C  C458  1  0.64430000  0.75380000  0.54310000  1
  C  C459  1  0.64430000  0.91500000  0.16050000  1
  C  C460  1  0.65510000  0.13260000  0.70950000  1
  C  C461  1  0.65510000  0.36740000  0.20950000  1
  C  C462  1  0.66550000  0.67510000  0.81230000  1
  C  C463  1  0.66550000  0.82490000  0.31230000  1
  C  C464  1  0.67090000  0.62160000  0.82810000  1
  C  C465  1  0.67090000  0.87840000  0.32810000  1
  C  C466  1  0.67190000  0.17090000  0.62160000  1
  C  C467  1  0.67190000  0.32910000  0.12160000  1
  C  C468  1  0.67490000  0.59920000  0.61570000  1
  C  C469  1  0.67490000  0.90080000  0.11570000  1
  C  C470  1  0.67510000  0.68770000  0.16550000  1
  C  C471  1  0.67510000  0.81230000  0.66550000  1
  C  C472  1  0.68660000  0.61150000  0.10580000  1
  C  C473  1  0.68660000  0.88850000  0.60580000  1
  C  C474  1  0.68770000  0.16550000  0.67510000  1
  C  C475  1  0.68770000  0.33450000  0.17510000  1
  C  C476  1  0.69260000  0.69770000  0.76370000  1
  C  C477  1  0.69260000  0.80230000  0.26370000  1
  C  C478  1  0.69770000  0.73630000  0.19260000  1
  C  C479  1  0.69770000  0.76370000  0.69260000  1
  C  C480  1  0.69790000  0.01750000  0.63180000  1
  C  C481  1  0.69790000  0.48250000  0.13180000  1
  C  C482  1  0.70650000  0.03870000  0.54200000  1
  C  C483  1  0.70650000  0.46130000  0.04200000  1
  C  C484  1  0.70950000  0.65510000  0.13260000  1
  C  C485  1  0.70950000  0.84490000  0.63260000  1
  C  C486  1  0.72480000  0.56840000  0.60320000  1
  C  C487  1  0.72480000  0.93160000  0.10320000  1
  C  C488  1  0.73630000  0.19260000  0.69770000  1
  C  C489  1  0.73630000  0.30740000  0.19770000  1
  C  C490  1  0.74380000  0.73860000  0.67200000  1
  C  C491  1  0.74380000  0.76140000  0.17200000  1
  C  C492  1  0.74540000  0.56530000  0.55150000  1
  C  C493  1  0.74540000  0.93470000  0.05150000  1
  C  C494  1  0.74620000  0.04310000  0.64430000  1
  C  C495  1  0.74620000  0.45690000  0.14430000  1
  C  C496  1  0.75380000  0.54310000  0.64430000  1
  C  C497  1  0.75380000  0.95690000  0.14430000  1
  C  C498  1  0.75460000  0.06530000  0.55150000  1
  C  C499  1  0.75460000  0.43470000  0.05150000  1
  C  C500  1  0.75620000  0.23860000  0.67200000  1
  C  C501  1  0.75620000  0.26140000  0.17200000  1
  C  C502  1  0.76370000  0.69260000  0.69770000  1
  C  C503  1  0.76370000  0.80740000  0.19770000  1
  C  C504  1  0.77520000  0.06840000  0.60320000  1
  C  C505  1  0.77520000  0.43160000  0.10320000  1
  C  C506  1  0.79050000  0.15510000  0.13260000  1
  C  C507  1  0.79050000  0.34490000  0.63260000  1
  C  C508  1  0.79350000  0.53870000  0.54200000  1
  C  C509  1  0.79350000  0.96130000  0.04200000  1
  C  C510  1  0.80210000  0.51750000  0.63180000  1
  C  C511  1  0.80210000  0.98250000  0.13180000  1
  C  C512  1  0.80230000  0.23630000  0.19260000  1
  C  C513  1  0.80230000  0.26370000  0.69260000  1
  C  C514  1  0.80740000  0.19770000  0.76370000  1
  C  C515  1  0.80740000  0.30230000  0.26370000  1
  C  C516  1  0.81230000  0.66550000  0.67510000  1
  C  C517  1  0.81230000  0.83450000  0.17510000  1
  C  C518  1  0.81340000  0.11150000  0.10580000  1
  C  C519  1  0.81340000  0.38850000  0.60580000  1
  C  C520  1  0.82490000  0.18770000  0.16550000  1
  C  C521  1  0.82490000  0.31230000  0.66550000  1
  C  C522  1  0.82510000  0.09920000  0.61570000  1
  C  C523  1  0.82510000  0.40080000  0.11570000  1
  C  C524  1  0.82810000  0.67090000  0.62160000  1
  C  C525  1  0.82810000  0.82910000  0.12160000  1
  C  C526  1  0.82910000  0.12160000  0.82810000  1
  C  C527  1  0.82910000  0.37840000  0.32810000  1
  C  C528  1  0.83450000  0.17510000  0.81230000  1
  C  C529  1  0.83450000  0.32490000  0.31230000  1
  C  C530  1  0.84490000  0.63260000  0.70950000  1
  C  C531  1  0.84490000  0.86740000  0.20950000  1
  C  C532  1  0.85570000  0.08500000  0.66050000  1
  C  C533  1  0.85570000  0.24620000  0.04310000  1
  C  C534  1  0.85570000  0.25380000  0.54310000  1
  C  C535  1  0.85570000  0.41500000  0.16050000  1
  C  C536  1  0.85620000  0.10290000  0.87390000  1
  C  C537  1  0.85620000  0.39710000  0.37390000  1
  C  C538  1  0.86740000  0.20950000  0.84490000  1
  C  C539  1  0.86740000  0.29050000  0.34490000  1
  C  C540  1  0.86820000  0.19790000  0.01750000  1
  C  C541  1  0.86820000  0.30210000  0.51750000  1
  C  C542  1  0.87390000  0.64380000  0.60290000  1
  C  C543  1  0.87390000  0.85620000  0.10290000  1
  C  C544  1  0.87840000  0.17190000  0.17090000  1
  C  C545  1  0.87840000  0.32810000  0.67090000  1
  C  C546  1  0.88430000  0.17490000  0.59920000  1
  C  C547  1  0.88430000  0.32510000  0.09920000  1
  C  C548  1  0.88850000  0.60580000  0.68660000  1
  C  C549  1  0.88850000  0.89420000  0.18660000  1
  C  C550  1  0.89420000  0.18660000  0.88850000  1
  C  C551  1  0.89420000  0.31340000  0.38850000  1
  C  C552  1  0.89680000  0.22480000  0.56840000  1
  C  C553  1  0.89680000  0.27520000  0.06840000  1
  C  C554  1  0.89710000  0.12610000  0.14380000  1
  C  C555  1  0.89710000  0.37390000  0.64380000  1
  C  C556  1  0.90080000  0.11570000  0.67490000  1
  C  C557  1  0.90080000  0.38430000  0.17490000  1
  C  C558  1  0.93160000  0.10320000  0.72480000  1
  C  C559  1  0.93160000  0.39680000  0.22480000  1
  C  C560  1  0.93470000  0.05150000  0.74540000  1
  C  C561  1  0.93470000  0.44850000  0.24540000  1
  C  C562  1  0.94850000  0.24540000  0.56530000  1
  C  C563  1  0.94850000  0.25460000  0.06530000  1
  C  C564  1  0.95690000  0.14430000  0.75380000  1
  C  C565  1  0.95690000  0.35570000  0.25380000  1
  C  C566  1  0.95800000  0.20650000  0.03870000  1
  C  C567  1  0.95800000  0.29350000  0.53870000  1
  C  C568  1  0.96130000  0.04200000  0.79350000  1
  C  C569  1  0.96130000  0.45800000  0.29350000  1
  C  C570  1  0.98250000  0.13180000  0.80210000  1
  C  C571  1  0.98250000  0.36820000  0.30210000  1
  N  N572  1  0.01380000  0.58170000  0.67720000  1
  N  N573  1  0.01380000  0.91830000  0.17720000  1
  N  N574  1  0.08170000  0.67720000  0.48620000  1
  N  N575  1  0.08170000  0.82280000  0.98620000  1
  N  N576  1  0.08500000  0.66050000  0.85570000  1
  N  N577  1  0.08500000  0.83950000  0.35570000  1
  N  N578  1  0.09580000  0.11080000  0.86520000  1
  N  N579  1  0.09580000  0.38920000  0.36520000  1
  N  N580  1  0.11080000  0.63480000  0.59580000  1
  N  N581  1  0.11080000  0.86520000  0.09580000  1
  N  N582  1  0.13480000  0.59580000  0.38920000  1
  N  N583  1  0.13480000  0.90420000  0.88920000  1
  N  N584  1  0.16050000  0.64430000  0.91500000  1
  N  N585  1  0.16050000  0.85570000  0.41500000  1
  N  N586  1  0.17200000  0.74380000  0.76140000  1
  N  N587  1  0.17200000  0.75620000  0.26140000  1
  N  N588  1  0.17720000  0.01380000  0.91830000  1
  N  N589  1  0.17720000  0.48620000  0.41830000  1
  N  N590  1  0.23860000  0.67200000  0.75620000  1
  N  N591  1  0.23860000  0.82800000  0.25620000  1
  N  N592  1  0.26140000  0.17200000  0.75620000  1
  N  N593  1  0.26140000  0.32800000  0.25620000  1
  N  N594  1  0.32280000  0.51380000  0.91830000  1
  N  N595  1  0.32280000  0.98620000  0.41830000  1
  N  N596  1  0.32800000  0.24380000  0.76140000  1
  N  N597  1  0.32800000  0.25620000  0.26140000  1
  N  N598  1  0.33950000  0.14430000  0.91500000  1
  N  N599  1  0.33950000  0.35570000  0.41500000  1
  N  N600  1  0.36520000  0.09580000  0.38920000  1
  N  N601  1  0.36520000  0.40420000  0.88920000  1
  N  N602  1  0.38920000  0.13480000  0.59580000  1
  N  N603  1  0.38920000  0.36520000  0.09580000  1
  N  N604  1  0.40420000  0.61080000  0.86520000  1
  N  N605  1  0.40420000  0.88920000  0.36520000  1
  N  N606  1  0.41500000  0.16050000  0.85570000  1
  N  N607  1  0.41500000  0.33950000  0.35570000  1
  N  N608  1  0.41830000  0.17720000  0.48620000  1
  N  N609  1  0.41830000  0.32280000  0.98620000  1
  N  N610  1  0.48620000  0.08170000  0.67720000  1
  N  N611  1  0.48620000  0.41830000  0.17720000  1
  N  N612  1  0.51380000  0.58170000  0.82280000  1
  N  N613  1  0.51380000  0.91830000  0.32280000  1
  N  N614  1  0.58170000  0.67720000  0.01380000  1
  N  N615  1  0.58170000  0.82280000  0.51380000  1
  N  N616  1  0.58500000  0.66050000  0.64430000  1
  N  N617  1  0.58500000  0.83950000  0.14430000  1
  N  N618  1  0.59580000  0.11080000  0.63480000  1
  N  N619  1  0.59580000  0.38920000  0.13480000  1
  N  N620  1  0.61080000  0.63480000  0.90420000  1
  N  N621  1  0.61080000  0.86520000  0.40420000  1
  N  N622  1  0.63480000  0.59580000  0.11080000  1
  N  N623  1  0.63480000  0.90420000  0.61080000  1
  N  N624  1  0.66050000  0.64430000  0.58500000  1
  N  N625  1  0.66050000  0.85570000  0.08500000  1
  N  N626  1  0.67200000  0.74380000  0.73860000  1
  N  N627  1  0.67200000  0.75620000  0.23860000  1
  N  N628  1  0.67720000  0.01380000  0.58170000  1
  N  N629  1  0.67720000  0.48620000  0.08170000  1
  N  N630  1  0.73860000  0.67200000  0.74380000  1
  N  N631  1  0.73860000  0.82800000  0.24380000  1
  N  N632  1  0.76140000  0.17200000  0.74380000  1
  N  N633  1  0.76140000  0.32800000  0.24380000  1
  N  N634  1  0.82280000  0.51380000  0.58170000  1
  N  N635  1  0.82280000  0.98620000  0.08170000  1
  N  N636  1  0.82800000  0.24380000  0.73860000  1
  N  N637  1  0.82800000  0.25620000  0.23860000  1
  N  N638  1  0.83950000  0.14430000  0.58500000  1
  N  N639  1  0.83950000  0.35570000  0.08500000  1
  N  N640  1  0.86520000  0.09580000  0.11080000  1
  N  N641  1  0.86520000  0.40420000  0.61080000  1
  N  N642  1  0.88920000  0.13480000  0.90420000  1
  N  N643  1  0.88920000  0.36520000  0.40420000  1
  N  N644  1  0.90420000  0.61080000  0.63480000  1
  N  N645  1  0.90420000  0.88920000  0.13480000  1
  N  N646  1  0.91500000  0.16050000  0.64430000  1
  N  N647  1  0.91500000  0.33950000  0.14430000  1
  N  N648  1  0.91830000  0.17720000  0.01380000  1
  N  N649  1  0.91830000  0.32280000  0.51380000  1
  N  N650  1  0.98620000  0.08170000  0.82280000  1
  N  N651  1  0.98620000  0.41830000  0.32280000  1
  F  F652  1  0.00220000  0.13460000  0.93630000  1
  F  F653  1  0.00220000  0.36540000  0.43630000  1
  F  F654  1  0.03160000  0.56720000  0.46170000  1
  F  F655  1  0.03160000  0.93280000  0.96170000  1
  F  F656  1  0.03830000  0.53160000  0.56720000  1
  F  F657  1  0.03830000  0.96840000  0.06720000  1
  F  F658  1  0.06370000  0.50220000  0.36540000  1
  F  F659  1  0.06370000  0.99780000  0.86540000  1
  F  F660  1  0.06720000  0.03830000  0.96840000  1
  F  F661  1  0.06720000  0.46170000  0.46840000  1
  F  F662  1  0.13460000  0.56370000  0.50220000  1
  F  F663  1  0.13460000  0.93630000  0.00220000  1
  F  F664  1  0.36540000  0.06370000  0.50220000  1
  F  F665  1  0.36540000  0.43630000  0.00220000  1
  F  F666  1  0.43280000  0.53830000  0.96840000  1
  F  F667  1  0.43280000  0.96170000  0.46840000  1
  F  F668  1  0.43630000  0.00220000  0.36540000  1
  F  F669  1  0.43630000  0.49780000  0.86540000  1
  F  F670  1  0.46170000  0.03160000  0.56720000  1
  F  F671  1  0.46170000  0.46840000  0.06720000  1
  F  F672  1  0.46840000  0.06720000  0.46170000  1
  F  F673  1  0.46840000  0.43280000  0.96170000  1
  F  F674  1  0.49780000  0.63460000  0.93630000  1
  F  F675  1  0.49780000  0.86540000  0.43630000  1
  F  F676  1  0.50220000  0.13460000  0.56370000  1
  F  F677  1  0.50220000  0.36540000  0.06370000  1
  F  F678  1  0.53160000  0.56720000  0.03830000  1
  F  F679  1  0.53160000  0.93280000  0.53830000  1
  F  F680  1  0.53830000  0.53160000  0.93280000  1
  F  F681  1  0.53830000  0.96840000  0.43280000  1
  F  F682  1  0.56370000  0.50220000  0.13460000  1
  F  F683  1  0.56370000  0.99780000  0.63460000  1
  F  F684  1  0.56720000  0.03830000  0.53160000  1
  F  F685  1  0.56720000  0.46170000  0.03160000  1
  F  F686  1  0.63460000  0.56370000  0.99780000  1
  F  F687  1  0.63460000  0.93630000  0.49780000  1
  F  F688  1  0.86540000  0.06370000  0.99780000  1
  F  F689  1  0.86540000  0.43630000  0.49780000  1
  F  F690  1  0.93280000  0.53830000  0.53160000  1
  F  F691  1  0.93280000  0.96170000  0.03160000  1
  F  F692  1  0.93630000  0.00220000  0.13460000  1
  F  F693  1  0.93630000  0.49780000  0.63460000  1
  F  F694  1  0.96170000  0.03160000  0.93280000  1
  F  F695  1  0.96170000  0.46840000  0.43280000  1
  F  F696  1  0.96840000  0.06720000  0.03830000  1
  F  F697  1  0.96840000  0.43280000  0.53830000  1
  F  F698  1  0.99780000  0.63460000  0.56370000  1
  F  F699  1  0.99780000  0.86540000  0.06370000  1
