# generated using pymatgen
data_Cu17H144C168(N30Cl)2
_symmetry_space_group_name_H-M   'P 1'
_cell_length_a   20.01400000
_cell_length_b   21.45470888
_cell_length_c   25.08500000
_cell_angle_alpha   81.09450133
_cell_angle_beta   70.61600000
_cell_angle_gamma   62.19755336
_symmetry_Int_Tables_number   1
_chemical_formula_structural   Cu17H144C168(N30Cl)2
_chemical_formula_sum   'Cu34 H288 C336 N120 Cl4'
_cell_volume   8987.84051649
_cell_formula_units_Z   2
loop_
 _symmetry_equiv_pos_site_id
 _symmetry_equiv_pos_as_xyz
  1  'x, y, z'
loop_
 _atom_site_type_symbol
 _atom_site_label
 _atom_site_symmetry_multiplicity
 _atom_site_fract_x
 _atom_site_fract_y
 _atom_site_fract_z
 _atom_site_occupancy
  C  C0  1  0.11433000  0.75614000  0.00640000  1
  C  C1  1  0.87047000  0.24386000  0.50640000  1
  C  C2  1  0.40430000  0.16860000  0.58068000  1
  C  C3  1  0.57290000  0.83140000  0.08068000  1
  C  C4  1  0.17118000  0.63244000  0.51122000  1
  C  C5  1  0.80362000  0.36756000  0.01122000  1
  C  C6  1  0.39257000  0.18516000  0.40934000  1
  C  C7  1  0.57773000  0.81484000  0.90934000  1
  C  C8  1  0.28223000  0.40016000  0.60934000  1
  C  C9  1  0.68239000  0.59984000  0.10934000  1
  C  C10  1  0.42164000  0.11232000  0.61874000  1
  C  C11  1  0.53396000  0.88768000  0.11874000  1
  C  C12  1  0.23877000  0.47066000  0.62465000  1
  C  C13  1  0.70943000  0.52934000  0.12465000  1
  C  C14  1  0.12228000  0.70144000  0.52809000  1
  C  C15  1  0.82372000  0.29856000  0.02809000  1
  C  C16  1  0.42216000  0.10108000  0.85052000  1
  C  C17  1  0.52324000  0.89892000  0.35052000  1
  C  C18  1  0.21335000  0.51850000  0.89870000  1
  C  C19  1  0.73185000  0.48150000  0.39870000  1
  C  C20  1  0.15429000  0.61514000  0.04056000  1
  C  C21  1  0.76943000  0.38486000  0.54056000  1
  C  C22  1  0.41414000  0.08652000  0.05740000  1
  C  C23  1  0.50066000  0.91348000  0.55740000  1
  C  C24  1  0.37816000  0.15708000  0.07400000  1
  C  C25  1  0.53524000  0.84292000  0.57400000  1
  C  C26  1  0.26646000  0.37888000  0.93148000  1
  C  C27  1  0.64534000  0.62112000  0.43148000  1
  C  C28  1  0.17603000  0.54166000  0.05824000  1
  C  C29  1  0.71769000  0.45834000  0.55824000  1
  C  C30  1  0.07204000  0.73992000  0.05780000  1
  C  C31  1  0.81196000  0.26008000  0.55780000  1
  C  C32  1  0.34434000  0.18772000  0.55804000  1
  C  C33  1  0.53206000  0.81228000  0.05804000  1
  C  C34  1  0.16493000  0.52954000  0.22690000  1
  C  C35  1  0.69447000  0.47046000  0.72690000  1
  C  C36  1  0.25530000  0.34838000  0.64166000  1
  C  C37  1  0.60368000  0.65162000  0.14166000  1
  C  C38  1  0.09137000  0.67046000  0.07470000  1
  C  C39  1  0.76183000  0.32954000  0.57470000  1
  C  C40  1  0.19266000  0.45928000  0.24350000  1
  C  C41  1  0.65194000  0.54072000  0.74350000  1
  C  C42  1  0.37627000  0.07606000  0.63209000  1
  C  C43  1  0.45233000  0.92394000  0.13209000  1
  C  C44  1  0.11374000  0.59512000  0.73808000  1
  C  C45  1  0.70886000  0.40488000  0.23808000  1
  C  C46  1  0.16148000  0.49684000  0.93890000  1
  C  C47  1  0.65832000  0.50316000  0.43890000  1
  C  C48  1  0.37769000  0.05852000  0.80547000  1
  C  C49  1  0.43621000  0.94148000  0.30547000  1
  C  C50  1  0.13848000  0.53636000  0.77072000  1
  C  C51  1  0.67484000  0.46364000  0.27072000  1
  C  C52  1  0.37544000  0.05952000  0.03970000  1
  C  C53  1  0.43496000  0.94048000  0.53970000  1
  C  C54  1  0.18856000  0.42748000  0.95560000  1
  C  C55  1  0.30308000  0.19844000  0.06950000  1
  C  C56  1  0.50152000  0.80156000  0.56950000  1
  C  C57  1  0.61604000  0.57252000  0.45560000  1
  C  C58  1  0.36752000  0.05076000  0.25441000  1
  C  C59  1  0.41828000  0.94924000  0.75441000  1
  C  C60  1  0.04874000  0.68812000  0.41124000  1
  C  C61  1  0.73686000  0.31188000  0.91124000  1
  C  C62  1  0.16838000  0.44698000  0.09612000  1
  C  C63  1  0.61536000  0.55302000  0.59612000  1
  C  C64  1  0.29486000  0.19000000  0.38766000  1
  C  C65  1  0.48486000  0.81000000  0.88766000  1
  C  C66  1  0.09942000  0.57976000  0.26320000  1
  C  C67  1  0.67918000  0.42024000  0.76320000  1
  C  C68  1  0.00689000  0.75702000  0.43150000  1
  C  C69  1  0.76391000  0.24298000  0.93150000  1
  C  C70  1  0.15548000  0.43964000  0.29598000  1
  C  C71  1  0.59512000  0.56036000  0.79598000  1
  C  C72  1  0.29862000  0.15196000  0.57110000  1
  C  C73  1  0.45058000  0.84804000  0.07110000  1
  C  C74  1  0.96570000  0.80240000  0.24180000  1
  C  C75  1  0.76810000  0.19760000  0.74180000  1
  C  C76  1  0.35965000  0.01330000  0.78027000  1
  C  C77  1  0.37295000  0.98670000  0.28027000  1
  C  C78  1  0.31567000  0.09526000  0.60930000  1
  C  C79  1  0.41093000  0.90474000  0.10930000  1
  C  C80  1  0.05770000  0.60820000  0.71192000  1
  C  C81  1  0.66590000  0.39180000  0.21192000  1
  C  C82  1  0.04100000  0.63300000  0.44541000  1
  C  C83  1  0.67400000  0.36700000  0.94541000  1
  C  C84  1  0.31312000  0.08856000  0.22530000  1
  C  C85  1  0.40168000  0.91144000  0.72530000  1
  C  C86  1  0.10745000  0.48818000  0.77879000  1
  C  C87  1  0.59563000  0.51182000  0.27879000  1
  C  C88  1  0.13927000  0.42262000  0.80986000  1
  C  C89  1  0.56189000  0.57738000  0.30986000  1
  C  C90  1  0.29919000  0.09982000  0.03880000  1
  C  C91  1  0.39901000  0.90018000  0.53880000  1
  C  C92  1  0.26327000  0.17106000  0.05320000  1
  C  C93  1  0.43433000  0.82894000  0.55320000  1
  C  C94  1  0.95500000  0.77980000  0.29870000  1
  C  C95  1  0.73480000  0.22020000  0.79870000  1
  C  C96  1  0.17101000  0.34538000  0.16084000  1
  C  C97  1  0.51639000  0.65462000  0.66084000  1
  C  C98  1  0.06285000  0.56010000  0.31608000  1
  C  C99  1  0.62295000  0.43990000  0.81608000  1
  C  C100  1  0.95224000  0.76992000  0.48490000  1
  C  C101  1  0.72216000  0.23008000  0.98490000  1
  C  C102  1  0.09017000  0.48990000  0.33357000  1
  C  C103  1  0.58007000  0.51010000  0.83357000  1
  C  C104  1  0.13619000  0.39722000  0.12465000  1
  C  C105  1  0.53341000  0.60278000  0.62465000  1
  C  C106  1  0.18670000  0.29418000  0.68635000  1
  C  C107  1  0.48088000  0.70582000  0.18635000  1
  C  C108  1  0.93318000  0.78684000  0.21050000  1
  C  C109  1  0.72002000  0.21316000  0.71050000  1
  C  C110  1  0.24125000  0.16910000  0.37584000  1
  C  C111  1  0.41035000  0.83090000  0.87584000  1
  C  C112  1  0.15156000  0.33370000  0.86568000  1
  C  C113  1  0.48526000  0.66630000  0.36568000  1
  C  C114  1  0.99057000  0.64522000  0.50043000  1
  C  C115  1  0.63579000  0.35478000  0.00043000  1
  C  C116  1  0.91025000  0.80170000  0.00460000  1
  C  C117  1  0.71195000  0.19830000  0.50460000  1
  C  C118  1  0.02467000  0.56166000  0.72160000  1
  C  C119  1  0.58633000  0.43834000  0.22160000  1
  C  C120  1  0.93693000  0.73254000  0.99400000  1
  C  C121  1  0.66947000  0.26746000  0.49400000  1
  C  C122  1  0.94554000  0.71472000  0.51901000  1
  C  C123  1  0.66026000  0.28528000  0.01901000  1
  C  C124  1  0.28404000  0.03612000  0.77730000  1
  C  C125  1  0.32016000  0.96388000  0.27730000  1
  C  C126  1  0.86669000  0.86902000  0.63930000  1
  C  C127  1  0.73571000  0.13098000  0.13930000  1
  C  C128  1  0.04948000  0.50224000  0.75408000  1
  C  C129  1  0.55172000  0.49776000  0.25408000  1
  C  C130  1  0.19449000  0.20802000  0.34150000  1
  C  C131  1  0.40251000  0.79198000  0.84150000  1
  C  C132  1  0.26235000  0.06450000  0.22150000  1
  C  C133  1  0.32685000  0.93550000  0.72150000  1
  C  C134  1  0.14240000  0.29660000  0.18450000  1
  C  C135  1  0.43900000  0.70340000  0.68450000  1
  C  C136  1  0.23367000  0.10966000  0.40210000  1
  C  C137  1  0.34333000  0.89034000  0.90210000  1
  C  C138  1  0.98939000  0.58800000  0.54046000  1
  C  C139  1  0.57739000  0.41200000  0.04046000  1
  C  C140  1  0.95734000  0.64892000  0.86200000  1
  C  C141  1  0.60626000  0.35108000  0.36200000  1
  C  C142  1  0.04627000  0.46932000  0.38686000  1
  C  C143  1  0.51559000  0.53068000  0.88686000  1
  C  C144  1  0.90774000  0.74532000  0.32250000  1
  C  C145  1  0.65306000  0.25468000  0.82250000  1
  C  C146  1  0.13187000  0.28616000  0.91061000  1
  C  C147  1  0.41803000  0.71384000  0.41061000  1
  C  C148  1  0.86058000  0.82824000  0.05750000  1
  C  C149  1  0.68882000  0.17176000  0.55750000  1
  C  C150  1  0.81934000  0.90912000  0.60520000  1
  C  C151  1  0.72846000  0.09088000  0.10520000  1
  C  C152  1  0.92112000  0.70176000  0.82710000  1
  C  C153  1  0.62288000  0.29824000  0.32710000  1
  C  C154  1  0.07076000  0.39968000  0.11454000  1
  C  C155  1  0.47044000  0.60032000  0.61454000  1
  C  C156  1  0.16079000  0.21562000  0.90080000  1
  C  C157  1  0.37641000  0.78438000  0.40080000  1
  C  C158  1  0.26520000  0.00200000  0.24900000  1
  C  C159  1  0.26720000  0.99800000  0.74900000  1
  C  C160  1  0.85865000  0.81110000  0.66630000  1
  C  C161  1  0.66975000  0.18890000  0.16630000  1
  C  C162  1  0.88764000  0.75132000  0.23360000  1
  C  C163  1  0.63896000  0.24868000  0.73360000  1
  C  C164  1  0.91677000  0.68866000  0.03604000  1
  C  C165  1  0.60543000  0.31134000  0.53604000  1
  C  C166  1  0.12670000  0.26818000  0.71054000  1
  C  C167  1  0.39488000  0.73182000  0.21054000  1
  C  C168  1  0.87330000  0.73182000  0.28946000  1
  C  C169  1  0.60512000  0.26818000  0.78946000  1
  C  C170  1  0.08323000  0.31134000  0.96396000  1
  C  C171  1  0.39457000  0.68866000  0.46396000  1
  C  C172  1  0.11236000  0.24868000  0.76640000  1
  C  C173  1  0.36104000  0.75132000  0.26640000  1
  C  C174  1  0.14135000  0.18890000  0.33370000  1
  C  C175  1  0.33025000  0.81110000  0.83370000  1
  C  C176  1  0.73480000  0.99800000  0.75100000  1
  C  C177  1  0.73280000  0.00200000  0.25100000  1
  C  C178  1  0.83921000  0.78438000  0.09920000  1
  C  C179  1  0.62359000  0.21562000  0.59920000  1
  C  C180  1  0.92924000  0.60032000  0.88546000  1
  C  C181  1  0.52956000  0.39968000  0.38546000  1
  C  C182  1  0.07888000  0.29824000  0.17290000  1
  C  C183  1  0.37712000  0.70176000  0.67290000  1
  C  C184  1  0.18066000  0.09088000  0.39480000  1
  C  C185  1  0.27154000  0.90912000  0.89480000  1
  C  C186  1  0.13942000  0.17176000  0.94250000  1
  C  C187  1  0.31118000  0.82824000  0.44250000  1
  C  C188  1  0.86813000  0.71384000  0.08939000  1
  C  C189  1  0.58197000  0.28616000  0.58939000  1
  C  C190  1  0.09226000  0.25468000  0.67750000  1
  C  C191  1  0.34694000  0.74532000  0.17750000  1
  C  C192  1  0.95373000  0.53068000  0.61314000  1
  C  C193  1  0.48441000  0.46932000  0.11314000  1
  C  C194  1  0.04266000  0.35108000  0.13800000  1
  C  C195  1  0.39374000  0.64892000  0.63800000  1
  C  C196  1  0.01061000  0.41200000  0.45954000  1
  C  C197  1  0.42261000  0.58800000  0.95954000  1
  C  C198  1  0.76633000  0.89034000  0.59790000  1
  C  C199  1  0.65667000  0.10966000  0.09790000  1
  C  C200  1  0.85760000  0.70340000  0.81550000  1
  C  C201  1  0.56100000  0.29660000  0.31550000  1
  C  C202  1  0.73765000  0.93550000  0.77850000  1
  C  C203  1  0.67315000  0.06450000  0.27850000  1
  C  C204  1  0.80551000  0.79198000  0.65850000  1
  C  C205  1  0.59749000  0.20802000  0.15850000  1
  C  C206  1  0.95052000  0.49776000  0.24592000  1
  C  C207  1  0.44828000  0.50224000  0.74592000  1
  C  C208  1  0.13331000  0.13098000  0.36070000  1
  C  C209  1  0.26429000  0.86902000  0.86070000  1
  C  C210  1  0.71596000  0.96388000  0.22270000  1
  C  C211  1  0.67984000  0.03612000  0.72270000  1
  C  C212  1  0.05446000  0.28528000  0.48099000  1
  C  C213  1  0.33974000  0.71472000  0.98099000  1
  C  C214  1  0.06307000  0.26746000  0.00600000  1
  C  C215  1  0.33053000  0.73254000  0.50600000  1
  C  C216  1  0.97533000  0.43834000  0.27840000  1
  C  C217  1  0.41367000  0.56166000  0.77840000  1
  C  C218  1  0.08975000  0.19830000  0.99540000  1
  C  C219  1  0.28805000  0.80170000  0.49540000  1
  C  C220  1  0.00943000  0.35478000  0.49957000  1
  C  C221  1  0.36421000  0.64522000  0.99957000  1
  C  C222  1  0.84844000  0.66630000  0.13432000  1
  C  C223  1  0.51474000  0.33370000  0.63432000  1
  C  C224  1  0.75875000  0.83090000  0.62416000  1
  C  C225  1  0.58965000  0.16910000  0.12416000  1
  C  C226  1  0.06682000  0.21316000  0.78950000  1
  C  C227  1  0.27998000  0.78684000  0.28950000  1
  C  C228  1  0.81330000  0.70582000  0.31365000  1
  C  C229  1  0.51912000  0.29418000  0.81365000  1
  C  C230  1  0.86381000  0.60278000  0.87535000  1
  C  C231  1  0.46659000  0.39722000  0.37535000  1
  C  C232  1  0.90983000  0.51010000  0.66643000  1
  C  C233  1  0.41993000  0.48990000  0.16643000  1
  C  C234  1  0.04776000  0.23008000  0.51510000  1
  C  C235  1  0.27784000  0.76992000  0.01510000  1
  C  C236  1  0.93715000  0.43990000  0.68392000  1
  C  C237  1  0.37705000  0.56010000  0.18392000  1
  C  C238  1  0.82899000  0.65462000  0.83916000  1
  C  C239  1  0.48361000  0.34538000  0.33916000  1
  C  C240  1  0.04500000  0.22020000  0.70130000  1
  C  C241  1  0.26520000  0.77980000  0.20130000  1
  C  C242  1  0.73673000  0.82894000  0.94680000  1
  C  C243  1  0.56567000  0.17106000  0.44680000  1
  C  C244  1  0.70081000  0.90018000  0.96120000  1
  C  C245  1  0.60099000  0.09982000  0.46120000  1
  C  C246  1  0.86073000  0.57738000  0.19014000  1
  C  C247  1  0.43811000  0.42262000  0.69014000  1
  C  C248  1  0.89255000  0.51182000  0.22121000  1
  C  C249  1  0.40437000  0.48818000  0.72121000  1
  C  C250  1  0.68688000  0.91144000  0.77470000  1
  C  C251  1  0.59832000  0.08856000  0.27470000  1
  C  C252  1  0.95900000  0.36700000  0.55459000  1
  C  C253  1  0.32600000  0.63300000  0.05459000  1
  C  C254  1  0.94230000  0.39180000  0.28808000  1
  C  C255  1  0.33410000  0.60820000  0.78808000  1
  C  C256  1  0.68433000  0.90474000  0.39070000  1
  C  C257  1  0.58907000  0.09526000  0.89070000  1
  C  C258  1  0.64035000  0.98670000  0.21973000  1
  C  C259  1  0.62705000  0.01330000  0.71973000  1
  C  C260  1  0.03430000  0.19760000  0.75820000  1
  C  C261  1  0.23190000  0.80240000  0.25820000  1
  C  C262  1  0.70138000  0.84804000  0.42890000  1
  C  C263  1  0.54942000  0.15196000  0.92890000  1
  C  C264  1  0.84452000  0.56036000  0.70402000  1
  C  C265  1  0.40488000  0.43964000  0.20402000  1
  C  C266  1  0.99311000  0.24298000  0.56850000  1
  C  C267  1  0.23609000  0.75702000  0.06850000  1
  C  C268  1  0.90058000  0.42024000  0.73680000  1
  C  C269  1  0.32082000  0.57976000  0.23680000  1
  C  C270  1  0.70514000  0.81000000  0.61234000  1
  C  C271  1  0.51514000  0.19000000  0.11234000  1
  C  C272  1  0.83162000  0.55302000  0.90388000  1
  C  C273  1  0.38464000  0.44698000  0.40388000  1
  C  C274  1  0.95126000  0.31188000  0.58876000  1
  C  C275  1  0.26314000  0.68812000  0.08876000  1
  C  C276  1  0.63248000  0.94924000  0.74559000  1
  C  C277  1  0.58172000  0.05076000  0.24559000  1
  C  C278  1  0.69692000  0.80156000  0.93050000  1
  C  C279  1  0.81144000  0.57252000  0.04440000  1
  C  C280  1  0.38396000  0.42748000  0.54440000  1
  C  C281  1  0.49848000  0.19844000  0.43050000  1
  C  C282  1  0.62456000  0.94048000  0.96030000  1
  C  C283  1  0.56504000  0.05952000  0.46030000  1
  C  C284  1  0.86152000  0.46364000  0.22928000  1
  C  C285  1  0.32516000  0.53636000  0.72928000  1
  C  C286  1  0.62231000  0.94148000  0.19453000  1
  C  C287  1  0.56379000  0.05852000  0.69453000  1
  C  C288  1  0.83852000  0.50316000  0.06110000  1
  C  C289  1  0.34168000  0.49684000  0.56110000  1
  C  C290  1  0.88626000  0.40488000  0.26192000  1
  C  C291  1  0.29114000  0.59512000  0.76192000  1
  C  C292  1  0.62373000  0.92394000  0.36791000  1
  C  C293  1  0.54767000  0.07606000  0.86791000  1
  C  C294  1  0.80734000  0.54072000  0.75650000  1
  C  C295  1  0.34806000  0.45928000  0.25650000  1
  C  C296  1  0.90863000  0.32954000  0.92530000  1
  C  C297  1  0.23817000  0.67046000  0.42530000  1
  C  C298  1  0.74470000  0.65162000  0.35834000  1
  C  C299  1  0.39632000  0.34838000  0.85834000  1
  C  C300  1  0.83507000  0.47046000  0.77310000  1
  C  C301  1  0.30553000  0.52954000  0.27310000  1
  C  C302  1  0.65566000  0.81228000  0.44196000  1
  C  C303  1  0.46794000  0.18772000  0.94196000  1
  C  C304  1  0.92796000  0.26008000  0.94220000  1
  C  C305  1  0.18804000  0.73992000  0.44220000  1
  C  C306  1  0.82397000  0.45834000  0.94176000  1
  C  C307  1  0.28231000  0.54166000  0.44176000  1
  C  C308  1  0.73354000  0.62112000  0.06852000  1
  C  C309  1  0.35466000  0.37888000  0.56852000  1
  C  C310  1  0.62184000  0.84292000  0.92600000  1
  C  C311  1  0.46476000  0.15708000  0.42600000  1
  C  C312  1  0.58586000  0.91348000  0.94260000  1
  C  C313  1  0.49934000  0.08652000  0.44260000  1
  C  C314  1  0.84571000  0.38486000  0.95944000  1
  C  C315  1  0.23057000  0.61514000  0.45944000  1
  C  C316  1  0.78665000  0.48150000  0.10130000  1
  C  C317  1  0.26815000  0.51850000  0.60130000  1
  C  C318  1  0.57784000  0.89892000  0.14948000  1
  C  C319  1  0.47676000  0.10108000  0.64948000  1
  C  C320  1  0.87772000  0.29856000  0.47191000  1
  C  C321  1  0.17628000  0.70144000  0.97191000  1
  C  C322  1  0.76123000  0.52934000  0.37535000  1
  C  C323  1  0.29057000  0.47066000  0.87535000  1
  C  C324  1  0.57836000  0.88768000  0.38126000  1
  C  C325  1  0.46604000  0.11232000  0.88126000  1
  C  C326  1  0.71777000  0.59984000  0.39066000  1
  C  C327  1  0.31761000  0.40016000  0.89066000  1
  C  C328  1  0.60743000  0.81484000  0.59066000  1
  C  C329  1  0.42227000  0.18516000  0.09066000  1
  C  C330  1  0.82882000  0.36756000  0.48878000  1
  C  C331  1  0.19638000  0.63244000  0.98878000  1
  C  C332  1  0.59570000  0.83140000  0.41932000  1
  C  C333  1  0.42710000  0.16860000  0.91932000  1
  C  C334  1  0.88567000  0.24386000  0.99360000  1
  C  C335  1  0.12953000  0.75614000  0.49360000  1
  Cl  Cl336  1  0.19367000  0.36244000  0.50801000  1
  Cl  Cl337  1  0.55611000  0.63756000  0.00801000  1
  Cl  Cl338  1  0.80633000  0.63756000  0.49199000  1
  Cl  Cl339  1  0.44389000  0.36244000  0.99199000  1
  Cu  Cu340  1  0.30805000  0.38390000  0.75000000  1
  Cu  Cu341  1  0.69195000  0.61610000  0.25000000  1
  Cu  Cu342  1  0.32261000  0.34214000  0.43230000  1
  Cu  Cu343  1  0.66475000  0.65786000  0.93230000  1
  Cu  Cu344  1  0.33312000  0.25652000  0.83194000  1
  Cu  Cu345  1  0.58964000  0.74348000  0.33194000  1
  Cu  Cu346  1  0.42150000  0.05086000  0.36771000  1
  Cu  Cu347  1  0.47236000  0.94914000  0.86771000  1
  Cu  Cu348  1  0.16193000  0.49016000  0.49668000  1
  Cu  Cu349  1  0.65209000  0.50984000  0.99668000  1
  Cu  Cu350  1  0.29645000  0.18922000  0.74641000  1
  Cu  Cu351  1  0.48567000  0.81078000  0.24641000  1
  Cu  Cu352  1  0.17871000  0.33778000  0.41289000  1
  Cu  Cu353  1  0.51649000  0.66222000  0.91289000  1
  Cu  Cu354  1  0.11083000  0.41212000  0.61228000  1
  Cu  Cu355  1  0.52295000  0.58788000  0.11228000  1
  Cu  Cu356  1  0.01326000  0.56350000  0.11885000  1
  Cu  Cu357  1  0.57676000  0.43650000  0.61885000  1
  Cu  Cu358  1  0.98674000  0.43650000  0.88115000  1
  Cu  Cu359  1  0.42324000  0.56350000  0.38115000  1
  Cu  Cu360  1  0.88917000  0.58788000  0.38772000  1
  Cu  Cu361  1  0.47705000  0.41212000  0.88772000  1
  Cu  Cu362  1  0.82129000  0.66222000  0.58711000  1
  Cu  Cu363  1  0.48351000  0.33778000  0.08711000  1
  Cu  Cu364  1  0.70355000  0.81078000  0.25359000  1
  Cu  Cu365  1  0.51433000  0.18922000  0.75359000  1
  Cu  Cu366  1  0.83807000  0.50984000  0.50332000  1
  Cu  Cu367  1  0.34791000  0.49016000  0.00332000  1
  Cu  Cu368  1  0.57850000  0.94914000  0.63229000  1
  Cu  Cu369  1  0.52764000  0.05086000  0.13229000  1
  Cu  Cu370  1  0.66688000  0.74348000  0.16806000  1
  Cu  Cu371  1  0.41036000  0.25652000  0.66806000  1
  Cu  Cu372  1  0.67739000  0.65786000  0.56770000  1
  Cu  Cu373  1  0.33525000  0.34214000  0.06770000  1
  H  H374  1  0.23930000  0.51580000  0.34770000  1
  H  H375  1  0.75510000  0.48420000  0.84770000  1
  H  H376  1  0.46570000  0.05740000  0.05830000  1
  H  H377  1  0.52310000  0.94260000  0.55830000  1
  H  H378  1  0.05750000  0.85940000  0.01220000  1
  H  H379  1  0.91690000  0.14060000  0.51220000  1
  H  H380  1  0.18760000  0.59140000  0.16400000  1
  H  H381  1  0.77900000  0.40860000  0.66400000  1
  H  H382  1  0.19590000  0.56540000  0.88750000  1
  H  H383  1  0.76130000  0.43460000  0.38750000  1
  H  H384  1  0.37230000  0.19340000  0.92930000  1
  H  H385  1  0.56570000  0.80660000  0.42930000  1
  H  H386  1  0.16460000  0.59660000  0.53490000  1
  H  H387  1  0.76120000  0.40340000  0.03490000  1
  H  H388  1  0.04130000  0.83500000  0.54130000  1
  H  H389  1  0.87630000  0.16500000  0.04130000  1
  H  H390  1  0.03430000  0.84720000  0.23810000  1
  H  H391  1  0.88150000  0.15280000  0.73810000  1
  H  H392  1  0.05140000  0.80420000  0.36550000  1
  H  H393  1  0.85560000  0.19580000  0.86550000  1
  H  H394  1  0.28400000  0.33200000  0.94290000  1
  H  H395  1  0.61600000  0.66800000  0.44290000  1
  H  H396  1  0.23660000  0.42500000  0.21920000  1
  H  H397  1  0.66160000  0.57500000  0.71920000  1
  H  H398  1  0.13490000  0.62680000  0.73350000  1
  H  H399  1  0.76170000  0.37320000  0.23350000  1
  H  H400  1  0.33400000  0.22560000  0.53320000  1
  H  H401  1  0.55960000  0.77440000  0.03320000  1
  H  H402  1  0.02140000  0.84900000  0.18250000  1
  H  H403  1  0.87040000  0.15100000  0.68250000  1
  H  H404  1  0.17660000  0.52840000  0.78780000  1
  H  H405  1  0.70500000  0.47160000  0.28780000  1
  H  H406  1  0.08390000  0.71140000  0.56310000  1
  H  H407  1  0.79530000  0.28860000  0.06310000  1
  H  H408  1  0.40120000  0.06820000  0.25690000  1
  H  H409  1  0.46940000  0.93180000  0.75690000  1
  H  H410  1  0.18900000  0.48580000  0.65110000  1
  H  H411  1  0.67480000  0.51420000  0.15110000  1
  H  H412  1  0.08230000  0.67900000  0.37440000  1
  H  H413  1  0.76130000  0.32100000  0.87440000  1
  H  H414  1  0.03000000  0.77620000  0.08150000  1
  H  H415  1  0.80620000  0.22380000  0.58150000  1
  H  H416  1  0.99000000  0.85500000  0.41140000  1
  H  H417  1  0.84500000  0.14500000  0.91140000  1
  H  H418  1  0.40150000  0.01280000  0.02810000  1
  H  H419  1  0.41430000  0.98720000  0.52810000  1
  H  H420  1  0.38690000  0.03820000  0.65690000  1
  H  H421  1  0.42510000  0.96180000  0.15690000  1
  H  H422  1  0.05670000  0.69420000  0.67090000  1
  H  H423  1  0.75090000  0.30580000  0.17090000  1
  H  H424  1  0.27870000  0.24620000  0.07780000  1
  H  H425  1  0.52490000  0.75380000  0.57780000  1
  H  H426  1  0.07970000  0.62680000  0.25240000  1
  H  H427  1  0.70650000  0.37320000  0.75240000  1
  H  H428  1  0.06180000  0.66080000  0.10930000  1
  H  H429  1  0.72260000  0.33920000  0.60930000  1
  H  H430  1  0.92850000  0.92200000  0.62750000  1
  H  H431  1  0.85050000  0.07800000  0.12750000  1
  H  H432  1  0.21380000  0.34340000  0.16920000  1
  H  H433  1  0.55720000  0.65660000  0.66920000  1
  H  H434  1  0.95400000  0.85960000  0.66470000  1
  H  H435  1  0.81360000  0.14040000  0.16470000  1
  H  H436  1  0.31090000  0.13080000  0.20800000  1
  H  H437  1  0.44170000  0.86920000  0.70800000  1
  H  H438  1  0.97970000  0.78800000  0.32050000  1
  H  H439  1  0.76770000  0.21200000  0.82050000  1
  H  H440  1  0.95780000  0.82940000  0.92800000  1
  H  H441  1  0.78720000  0.17060000  0.42800000  1
  H  H442  1  0.17450000  0.39240000  0.30620000  1
  H  H443  1  0.56690000  0.60760000  0.80620000  1
  H  H444  1  0.07000000  0.58720000  0.43130000  1
  H  H445  1  0.65720000  0.41280000  0.93130000  1
  H  H446  1  0.98790000  0.75000000  0.81280000  1
  H  H447  1  0.73790000  0.25000000  0.31280000  1
  H  H448  1  0.15440000  0.41280000  0.98320000  1
  H  H449  1  0.56720000  0.58720000  0.48320000  1
  H  H450  1  0.06520000  0.58820000  0.95120000  1
  H  H451  1  0.65340000  0.41180000  0.45120000  1
  H  H452  1  0.91220000  0.88960000  0.96830000  1
  H  H453  1  0.80180000  0.11040000  0.46830000  1
  H  H454  1  0.94120000  0.80020000  0.17270000  1
  H  H455  1  0.74140000  0.19980000  0.67270000  1
  H  H456  1  0.00050000  0.67360000  0.66060000  1
  H  H457  1  0.67410000  0.32640000  0.16060000  1
  H  H458  1  0.23121667  0.20420000  0.52250000  1
  H  H459  1  0.43541667  0.79580000  0.02250000  1
  H  H460  1  0.92000000  0.81600000  0.49780000  1
  H  H461  1  0.73600000  0.18400000  0.99780000  1
  H  H462  1  0.96910000  0.71440000  0.95820000  1
  H  H463  1  0.68350000  0.28560000  0.45820000  1
  H  H464  1  0.00100000  0.64640000  0.86950000  1
  H  H465  1  0.64740000  0.35360000  0.36950000  1
  H  H466  1  0.19880000  0.24780000  0.32330000  1
  H  H467  1  0.44660000  0.75220000  0.82330000  1
  H  H468  1  0.28550000  0.07060000  0.61920000  1
  H  H469  1  0.35610000  0.92940000  0.11920000  1
  H  H470  1  0.92550000  0.78480000  0.78380000  1
  H  H471  1  0.71030000  0.21520000  0.28380000  1
  H  H472  1  0.01920000  0.59460000  0.34030000  1
  H  H473  1  0.61380000  0.40540000  0.84030000  1
  H  H474  1  0.04990000  0.53100000  0.98640000  1
  H  H475  1  0.58090000  0.46900000  0.48640000  1
  H  H476  1  0.21200000  0.20000000  0.05160000  1
  H  H477  1  0.41200000  0.80000000  0.55160000  1
  H  H478  1  0.26510000  0.08220000  0.42510000  1
  H  H479  1  0.34730000  0.91780000  0.92510000  1
  H  H480  1  0.82360000  0.94900000  0.58730000  1
  H  H481  1  0.77260000  0.05100000  0.08730000  1
  H  H482  1  0.16640000  0.26220000  0.20870000  1
  H  H483  1  0.42860000  0.73780000  0.70870000  1
  H  H484  1  0.28390000  0.02660000  0.01350000  1
  H  H485  1  0.31050000  0.97340000  0.51350000  1
  H  H486  1  0.19530000  0.19680000  0.86550000  1
  H  H487  1  0.39210000  0.80320000  0.36550000  1
  H  H488  1  0.21190000  0.14740000  0.55490000  1
  H  H489  1  0.35930000  0.85260000  0.05490000  1
  H  H490  1  0.24380000  0.07820000  0.79480000  1
  H  H491  1  0.32200000  0.92180000  0.29480000  1
  H  H492  1  0.88920000  0.78460000  0.69000000  1
  H  H493  1  0.67380000  0.21540000  0.19000000  1
  H  H494  1  0.82470000  0.91200000  0.81010000  1
  H  H495  1  0.73670000  0.08800000  0.31010000  1
  H  H496  1  0.84130000  0.87560000  0.06530000  1
  H  H497  1  0.71690000  0.12440000  0.56530000  1
  H  H498  1  0.78430000  0.98600000  0.25180000  1
  H  H499  1  0.77030000  0.01400000  0.75180000  1
  H  H500  1  0.20480000  0.14240000  0.17630000  1
  H  H501  1  0.34720000  0.85760000  0.67630000  1
  H  H502  1  0.91010000  0.72420000  0.55520000  1
  H  H503  1  0.63430000  0.27580000  0.05520000  1
  H  H504  1  0.98500000  0.57080000  0.70580000  1
  H  H505  1  0.55580000  0.42920000  0.20580000  1
  H  H506  1  0.89970000  0.73160000  0.36030000  1
  H  H507  1  0.63130000  0.26840000  0.86030000  1
  H  H508  1  0.13390000  0.25960000  0.78920000  1
  H  H509  1  0.39350000  0.74040000  0.28920000  1
  H  H510  1  0.04560000  0.43480000  0.09140000  1
  H  H511  1  0.48040000  0.56520000  0.59140000  1
  H  H512  1  0.02710000  0.47140000  0.75950000  1
  H  H513  1  0.49850000  0.52860000  0.25950000  1
  H  H514  1  0.21210000  0.09580000  0.02230000  1
  H  H515  1  0.30790000  0.90420000  0.52230000  1
  H  H516  1  0.93640000  0.64140000  0.02800000  1
  H  H517  1  0.57780000  0.35860000  0.52800000  1
  H  H518  1  0.06360000  0.35860000  0.97200000  1
  H  H519  1  0.42220000  0.64140000  0.47200000  1
  H  H520  1  0.78790000  0.90420000  0.97770000  1
  H  H521  1  0.69210000  0.09580000  0.47770000  1
  H  H522  1  0.97290000  0.52860000  0.24050000  1
  H  H523  1  0.50150000  0.47140000  0.74050000  1
  H  H524  1  0.95440000  0.56520000  0.90860000  1
  H  H525  1  0.51960000  0.43480000  0.40860000  1
  H  H526  1  0.86610000  0.74040000  0.21080000  1
  H  H527  1  0.60650000  0.25960000  0.71080000  1
  H  H528  1  0.10030000  0.26840000  0.63970000  1
  H  H529  1  0.36870000  0.73160000  0.13970000  1
  H  H530  1  0.01500000  0.42920000  0.29420000  1
  H  H531  1  0.44420000  0.57080000  0.79420000  1
  H  H532  1  0.08990000  0.27580000  0.44480000  1
  H  H533  1  0.36570000  0.72420000  0.94480000  1
  H  H534  1  0.79520000  0.85760000  0.82370000  1
  H  H535  1  0.65280000  0.14240000  0.32370000  1
  H  H536  1  0.21570000  0.01400000  0.74820000  1
  H  H537  1  0.22970000  0.98600000  0.24820000  1
  H  H538  1  0.15870000  0.12440000  0.93470000  1
  H  H539  1  0.28310000  0.87560000  0.43470000  1
  H  H540  1  0.17530000  0.08800000  0.18990000  1
  H  H541  1  0.26330000  0.91200000  0.68990000  1
  H  H542  1  0.11080000  0.21540000  0.31000000  1
  H  H543  1  0.32620000  0.78460000  0.81000000  1
  H  H544  1  0.75620000  0.92180000  0.20520000  1
  H  H545  1  0.67800000  0.07820000  0.70520000  1
  H  H546  1  0.78810000  0.85260000  0.44510000  1
  H  H547  1  0.64070000  0.14740000  0.94510000  1
  H  H548  1  0.80470000  0.80320000  0.13450000  1
  H  H549  1  0.60790000  0.19680000  0.63450000  1
  H  H550  1  0.71610000  0.97340000  0.98650000  1
  H  H551  1  0.68950000  0.02660000  0.48650000  1
  H  H552  1  0.83360000  0.73780000  0.79130000  1
  H  H553  1  0.57140000  0.26220000  0.29130000  1
  H  H554  1  0.17640000  0.05100000  0.41270000  1
  H  H555  1  0.22740000  0.94900000  0.91270000  1
  H  H556  1  0.73490000  0.91780000  0.57490000  1
  H  H557  1  0.65270000  0.08220000  0.07490000  1
  H  H558  1  0.78800000  0.80000000  0.94840000  1
  H  H559  1  0.58800000  0.20000000  0.44840000  1
  H  H560  1  0.95010000  0.46900000  0.01360000  1
  H  H561  1  0.41910000  0.53100000  0.51360000  1
  H  H562  1  0.98080000  0.40540000  0.65970000  1
  H  H563  1  0.38620000  0.59460000  0.15970000  1
  H  H564  1  0.07450000  0.21520000  0.21620000  1
  H  H565  1  0.28970000  0.78480000  0.71620000  1
  H  H566  1  0.71450000  0.92940000  0.38080000  1
  H  H567  1  0.64390000  0.07060000  0.88080000  1
  H  H568  1  0.80120000  0.75220000  0.67670000  1
  H  H569  1  0.55340000  0.24780000  0.17670000  1
  H  H570  1  0.99900000  0.35360000  0.13050000  1
  H  H571  1  0.35260000  0.64640000  0.63050000  1
  H  H572  1  0.03090000  0.28560000  0.04180000  1
  H  H573  1  0.31650000  0.71440000  0.54180000  1
  H  H574  1  0.08000000  0.18400000  0.50220000  1
  H  H575  1  0.26400000  0.81600000  0.00220000  1
  H  H576  1  0.76878333  0.79580000  0.47750000  1
  H  H577  1  0.56458333  0.20420000  0.97750000  1
  H  H578  1  0.99950000  0.32640000  0.33940000  1
  H  H579  1  0.32590000  0.67360000  0.83940000  1
  H  H580  1  0.05880000  0.19980000  0.82730000  1
  H  H581  1  0.25860000  0.80020000  0.32730000  1
  H  H582  1  0.08780000  0.11040000  0.03170000  1
  H  H583  1  0.19820000  0.88960000  0.53170000  1
  H  H584  1  0.93480000  0.41180000  0.04880000  1
  H  H585  1  0.34660000  0.58820000  0.54880000  1
  H  H586  1  0.84560000  0.58720000  0.01680000  1
  H  H587  1  0.43280000  0.41280000  0.51680000  1
  H  H588  1  0.01210000  0.25000000  0.18720000  1
  H  H589  1  0.26210000  0.75000000  0.68720000  1
  H  H590  1  0.93000000  0.41280000  0.56870000  1
  H  H591  1  0.34280000  0.58720000  0.06870000  1
  H  H592  1  0.82550000  0.60760000  0.69380000  1
  H  H593  1  0.43310000  0.39240000  0.19380000  1
  H  H594  1  0.04220000  0.17060000  0.07200000  1
  H  H595  1  0.21280000  0.82940000  0.57200000  1
  H  H596  1  0.02030000  0.21200000  0.67950000  1
  H  H597  1  0.23230000  0.78800000  0.17950000  1
  H  H598  1  0.68910000  0.86920000  0.79200000  1
  H  H599  1  0.55830000  0.13080000  0.29200000  1
  H  H600  1  0.04600000  0.14040000  0.33530000  1
  H  H601  1  0.18640000  0.85960000  0.83530000  1
  H  H602  1  0.78620000  0.65660000  0.83080000  1
  H  H603  1  0.44280000  0.34340000  0.33080000  1
  H  H604  1  0.07150000  0.07800000  0.37250000  1
  H  H605  1  0.14950000  0.92200000  0.87250000  1
  H  H606  1  0.93820000  0.33920000  0.89070000  1
  H  H607  1  0.27740000  0.66080000  0.39070000  1
  H  H608  1  0.92030000  0.37320000  0.74760000  1
  H  H609  1  0.29350000  0.62680000  0.24760000  1
  H  H610  1  0.72130000  0.75380000  0.92220000  1
  H  H611  1  0.47510000  0.24620000  0.42220000  1
  H  H612  1  0.94330000  0.30580000  0.32910000  1
  H  H613  1  0.24910000  0.69420000  0.82910000  1
  H  H614  1  0.61310000  0.96180000  0.34310000  1
  H  H615  1  0.57490000  0.03820000  0.84310000  1
  H  H616  1  0.59850000  0.98720000  0.97190000  1
  H  H617  1  0.58570000  0.01280000  0.47190000  1
  H  H618  1  0.01000000  0.14500000  0.58860000  1
  H  H619  1  0.15500000  0.85500000  0.08860000  1
  H  H620  1  0.97000000  0.22380000  0.91850000  1
  H  H621  1  0.19380000  0.77620000  0.41850000  1
  H  H622  1  0.91770000  0.32100000  0.62560000  1
  H  H623  1  0.23870000  0.67900000  0.12560000  1
  H  H624  1  0.81100000  0.51420000  0.34890000  1
  H  H625  1  0.32520000  0.48580000  0.84890000  1
  H  H626  1  0.59880000  0.93180000  0.74310000  1
  H  H627  1  0.53060000  0.06820000  0.24310000  1
  H  H628  1  0.91610000  0.28860000  0.43690000  1
  H  H629  1  0.20470000  0.71140000  0.93690000  1
  H  H630  1  0.82340000  0.47160000  0.21220000  1
  H  H631  1  0.29500000  0.52840000  0.71220000  1
  H  H632  1  0.97860000  0.15100000  0.81750000  1
  H  H633  1  0.12960000  0.84900000  0.31750000  1
  H  H634  1  0.66600000  0.77440000  0.46680000  1
  H  H635  1  0.44040000  0.22560000  0.96680000  1
  H  H636  1  0.86510000  0.37320000  0.26650000  1
  H  H637  1  0.23830000  0.62680000  0.76650000  1
  H  H638  1  0.76340000  0.57500000  0.78080000  1
  H  H639  1  0.33840000  0.42500000  0.28080000  1
  H  H640  1  0.71600000  0.66800000  0.05710000  1
  H  H641  1  0.38400000  0.33200000  0.55710000  1
  H  H642  1  0.94860000  0.19580000  0.63450000  1
  H  H643  1  0.14440000  0.80420000  0.13450000  1
  H  H644  1  0.96570000  0.15280000  0.76190000  1
  H  H645  1  0.11850000  0.84720000  0.26190000  1
  H  H646  1  0.95870000  0.16500000  0.45870000  1
  H  H647  1  0.12370000  0.83500000  0.95870000  1
  H  H648  1  0.83540000  0.40340000  0.46510000  1
  H  H649  1  0.23880000  0.59660000  0.96510000  1
  H  H650  1  0.62770000  0.80660000  0.07070000  1
  H  H651  1  0.43430000  0.19340000  0.57070000  1
  H  H652  1  0.80410000  0.43460000  0.11250000  1
  H  H653  1  0.23870000  0.56540000  0.61250000  1
  H  H654  1  0.81240000  0.40860000  0.83600000  1
  H  H655  1  0.22100000  0.59140000  0.33600000  1
  H  H656  1  0.94250000  0.14060000  0.98780000  1
  H  H657  1  0.08310000  0.85940000  0.48780000  1
  H  H658  1  0.53430000  0.94260000  0.94170000  1
  H  H659  1  0.47690000  0.05740000  0.44170000  1
  H  H660  1  0.76070000  0.48420000  0.65230000  1
  H  H661  1  0.24490000  0.51580000  0.15230000  1
  N  N662  1  0.24946000  0.49060000  0.04770000  1
  N  N663  1  0.74006000  0.50940000  0.54770000  1
  N  N664  1  0.07807000  0.82566000  0.50960000  1
  N  N665  1  0.90373000  0.17434000  0.00960000  1
  N  N666  1  0.20414000  0.54792000  0.17431000  1
  N  N667  1  0.75206000  0.45208000  0.67431000  1
  N  N668  1  0.34031000  0.25268000  0.41133000  1
  N  N669  1  0.59299000  0.74732000  0.91133000  1
  N  N670  1  0.24439000  0.42954000  0.07201000  1
  N  N671  1  0.67393000  0.57046000  0.57201000  1
  N  N672  1  0.37238000  0.15522000  0.82769000  1
  N  N673  1  0.52760000  0.84478000  0.32769000  1
  N  N674  1  0.29919000  0.29640000  0.66905000  1
  N  N675  1  0.59559000  0.70360000  0.16905000  1
  N  N676  1  0.42701000  0.03908000  0.83807000  1
  N  N677  1  0.46609000  0.96092000  0.33807000  1
  N  N678  1  0.36731000  0.14420000  0.39329000  1
  N  N679  1  0.51151000  0.85580000  0.89329000  1
  N  N680  1  0.01330000  0.83740000  0.21770000  1
  N  N681  1  0.85070000  0.16260000  0.71770000  1
  N  N682  1  0.01743000  0.81254000  0.39850000  1
  N  N683  1  0.82997000  0.18746000  0.89850000  1
  N  N684  1  0.34431000  0.12802000  0.79842000  1
  N  N685  1  0.47233000  0.87198000  0.29842000  1
  N  N686  1  0.21616000  0.38112000  0.79996000  1
  N  N687  1  0.59728000  0.61888000  0.29996000  1
  N  N688  1  0.27732000  0.25540000  0.39766000  1
  N  N689  1  0.53272000  0.74460000  0.89766000  1
  N  N690  1  0.22406000  0.32374000  0.83571000  1
  N  N691  1  0.54780000  0.67626000  0.33571000  1
  N  N692  1  0.25506000  0.26130000  0.69759000  1
  N  N693  1  0.51636000  0.73870000  0.19759000  1
  N  N694  1  0.12305000  0.51668000  0.08903000  1
  N  N695  1  0.63973000  0.48332000  0.58903000  1
  N  N696  1  0.03554000  0.66592000  0.67670000  1
  N  N697  1  0.70146000  0.33408000  0.17670000  1
  N  N698  1  0.92368000  0.88564000  0.64450000  1
  N  N699  1  0.80932000  0.11436000  0.14450000  1
  N  N700  1  0.18425000  0.34916000  0.65066000  1
  N  N701  1  0.53341000  0.65084000  0.15066000  1
  N  N702  1  0.08194000  0.54492000  0.96180000  1
  N  N703  1  0.62686000  0.45508000  0.46180000  1
  N  N704  1  0.92914000  0.84592000  0.96140000  1
  N  N705  1  0.77506000  0.15408000  0.46140000  1
  N  N706  1  0.23981000  0.17018000  0.54640000  1
  N  N707  1  0.40999000  0.82982000  0.04640000  1
  N  N708  1  0.94826000  0.75188000  0.80510000  1
  N  N709  1  0.70014000  0.24812000  0.30510000  1
  N  N710  1  0.05338000  0.52828000  0.54170000  1
  N  N711  1  0.58166000  0.47172000  0.04170000  1
  N  N712  1  0.26010000  0.07040000  0.02280000  1
  N  N713  1  0.33050000  0.92960000  0.52280000  1
  N  N714  1  0.09636000  0.39518000  0.85092000  1
  N  N715  1  0.49154000  0.60482000  0.35092000  1
  N  N716  1  0.07453000  0.40878000  0.41617000  1
  N  N717  1  0.48331000  0.59122000  0.91617000  1
  N  N718  1  0.03050000  0.49140000  0.58884000  1
  N  N719  1  0.52190000  0.50860000  0.08884000  1
  N  N720  1  0.20708000  0.10324000  0.19210000  1
  N  N721  1  0.31032000  0.89676000  0.69210000  1
  N  N722  1  0.79292000  0.89676000  0.80790000  1
  N  N723  1  0.68968000  0.10324000  0.30790000  1
  N  N724  1  0.96950000  0.50860000  0.41116000  1
  N  N725  1  0.47810000  0.49140000  0.91116000  1
  N  N726  1  0.92547000  0.59122000  0.58383000  1
  N  N727  1  0.51669000  0.40878000  0.08383000  1
  N  N728  1  0.90364000  0.60482000  0.14908000  1
  N  N729  1  0.50846000  0.39518000  0.64908000  1
  N  N730  1  0.73990000  0.92960000  0.97720000  1
  N  N731  1  0.66950000  0.07040000  0.47720000  1
  N  N732  1  0.94662000  0.47172000  0.45830000  1
  N  N733  1  0.41834000  0.52828000  0.95830000  1
  N  N734  1  0.05174000  0.24812000  0.19490000  1
  N  N735  1  0.29986000  0.75188000  0.69490000  1
  N  N736  1  0.76019000  0.82982000  0.45360000  1
  N  N737  1  0.59001000  0.17018000  0.95360000  1
  N  N738  1  0.07086000  0.15408000  0.03860000  1
  N  N739  1  0.22494000  0.84592000  0.53860000  1
  N  N740  1  0.91806000  0.45508000  0.03820000  1
  N  N741  1  0.37314000  0.54492000  0.53820000  1
  N  N742  1  0.81575000  0.65084000  0.34934000  1
  N  N743  1  0.46659000  0.34916000  0.84934000  1
  N  N744  1  0.07632000  0.11436000  0.35550000  1
  N  N745  1  0.19068000  0.88564000  0.85550000  1
  N  N746  1  0.96446000  0.33408000  0.32330000  1
  N  N747  1  0.29854000  0.66592000  0.82330000  1
  N  N748  1  0.87695000  0.48332000  0.91097000  1
  N  N749  1  0.36027000  0.51668000  0.41097000  1
  N  N750  1  0.74494000  0.73870000  0.30241000  1
  N  N751  1  0.48364000  0.26130000  0.80241000  1
  N  N752  1  0.77594000  0.67626000  0.16429000  1
  N  N753  1  0.45220000  0.32374000  0.66429000  1
  N  N754  1  0.72268000  0.74460000  0.60234000  1
  N  N755  1  0.46728000  0.25540000  0.10234000  1
  N  N756  1  0.78384000  0.61888000  0.20004000  1
  N  N757  1  0.40272000  0.38112000  0.70004000  1
  N  N758  1  0.65569000  0.87198000  0.20158000  1
  N  N759  1  0.52767000  0.12802000  0.70158000  1
  N  N760  1  0.98257000  0.18746000  0.60150000  1
  N  N761  1  0.17003000  0.81254000  0.10150000  1
  N  N762  1  0.98670000  0.16260000  0.78230000  1
  N  N763  1  0.14930000  0.83740000  0.28230000  1
  N  N764  1  0.63269000  0.85580000  0.60671000  1
  N  N765  1  0.48849000  0.14420000  0.10671000  1
  N  N766  1  0.57299000  0.96092000  0.16193000  1
  N  N767  1  0.53391000  0.03908000  0.66193000  1
  N  N768  1  0.70081000  0.70360000  0.33095000  1
  N  N769  1  0.40441000  0.29640000  0.83095000  1
  N  N770  1  0.62762000  0.84478000  0.17231000  1
  N  N771  1  0.47240000  0.15522000  0.67231000  1
  N  N772  1  0.75561000  0.57046000  0.92799000  1
  N  N773  1  0.32607000  0.42954000  0.42799000  1
  N  N774  1  0.65969000  0.74732000  0.58867000  1
  N  N775  1  0.40701000  0.25268000  0.08867000  1
  N  N776  1  0.79586000  0.45208000  0.82569000  1
  N  N777  1  0.24794000  0.54792000  0.32569000  1
  N  N778  1  0.92193000  0.17434000  0.49040000  1
  N  N779  1  0.09627000  0.82566000  0.99040000  1
  N  N780  1  0.75054000  0.50940000  0.95230000  1
  N  N781  1  0.25994000  0.49060000  0.45230000  1
