# generated using pymatgen
data_Zn4H24C48O13
_symmetry_space_group_name_H-M   'P 1'
_cell_length_a   24.93317156
_cell_length_b   24.93290000
_cell_length_c   24.93290000
_cell_angle_alpha   109.47100000
_cell_angle_beta   109.47144127
_cell_angle_gamma   109.47144127
_symmetry_Int_Tables_number   1
_chemical_formula_structural   Zn4H24C48O13
_chemical_formula_sum   'Zn32 H192 C384 O104'
_cell_volume   11931.63727975
_cell_formula_units_Z   8
loop_
 _symmetry_equiv_pos_site_id
 _symmetry_equiv_pos_as_xyz
  1  'x, y, z'
loop_
 _atom_site_type_symbol
 _atom_site_label
 _atom_site_symmetry_multiplicity
 _atom_site_fract_x
 _atom_site_fract_y
 _atom_site_fract_z
 _atom_site_occupancy
  Zn  Zn0  1  0.50578000  0.00578000  0.50578000  1
  Zn  Zn1  1  0.00578000  0.50578000  0.00578000  1
  Zn  Zn2  1  0.13074000  0.55255000  0.13447000  1
  Zn  Zn3  1  0.49422000  0.50000000  0.50000000  1
  Zn  Zn4  1  0.36926000  0.50373000  0.42181000  1
  Zn  Zn5  1  0.05255000  0.63447000  0.13074000  1
  Zn  Zn6  1  0.55255000  0.13074000  0.63447000  1
  Zn  Zn7  1  0.36553000  0.41808000  0.49627000  1
  Zn  Zn8  1  0.44745000  0.57819000  0.58192000  1
  Zn  Zn9  1  0.00373000  0.92181000  0.36926000  1
  Zn  Zn10  1  0.07819000  0.08192000  0.44745000  1
  Zn  Zn11  1  0.50373000  0.36926000  0.92181000  1
  Zn  Zn12  1  0.49627000  0.86553000  0.91808000  1
  Zn  Zn13  1  0.91808000  0.99627000  0.36553000  1
  Zn  Zn14  1  1.00000000  1.00000000  0.49422000  1
  Zn  Zn15  1  0.58192000  0.94745000  0.07819000  1
  Zn  Zn16  1  0.50000000  0.99422000  1.00000000  1
  Zn  Zn17  1  0.50000000  0.49422000  1.00000000  1
  Zn  Zn18  1  0.57819000  0.44745000  0.08192000  1
  Zn  Zn19  1  0.99422000  0.50000000  0.50000000  1
  Zn  Zn20  1  0.86553000  0.49627000  0.41808000  1
  Zn  Zn21  1  0.41808000  0.36553000  0.99627000  1
  Zn  Zn22  1  0.42181000  0.86926000  0.00373000  1
  Zn  Zn23  1  0.94745000  0.58192000  0.57819000  1
  Zn  Zn24  1  0.86926000  0.42181000  0.50373000  1
  Zn  Zn25  1  0.08192000  0.07819000  0.94745000  1
  Zn  Zn26  1  0.99627000  0.91808000  0.86553000  1
  Zn  Zn27  1  0.13447000  0.63074000  0.05255000  1
  Zn  Zn28  1  0.63074000  0.13447000  0.55255000  1
  Zn  Zn29  1  0.92181000  0.00373000  0.86926000  1
  Zn  Zn30  1  1.00000000  1.00000000  0.99422000  1
  Zn  Zn31  1  0.63447000  0.05255000  0.63074000  1
  H  H32  1  0.82400000  0.67840000  0.83680000  1
  H  H33  1  0.32980000  0.26990000  0.35310000  1
  H  H34  1  0.06270000  0.20600000  0.08670000  1
  H  H35  1  0.64730000  0.58580000  0.68150000  1
  H  H36  1  0.71910000  0.58510000  0.76180000  1
  H  H37  1  0.37620000  0.16710000  0.42030000  1
  H  H38  1  0.91680000  0.14690000  0.97670000  1
  H  H39  1  0.90430000  0.81850000  0.96580000  1
  H  H40  1  0.41330000  0.11930000  0.47600000  1
  H  H41  1  0.04410000  0.29090000  0.12380000  1
  H  H42  1  0.94010000  0.67020000  0.02330000  1
  H  H43  1  0.78090000  0.54270000  0.86600000  1
  H  H44  1  0.59480000  0.29710000  0.68050000  1
  H  H45  1  0.85270000  0.53420000  0.93850000  1
  H  H46  1  0.79400000  0.85670000  0.88070000  1
  H  H47  1  0.20290000  0.38340000  0.29770000  1
  H  H48  1  0.93850000  0.35270000  0.03420000  1
  H  H49  1  0.27330000  0.14740000  0.38470000  1
  H  H50  1  0.11140000  0.37410000  0.22670000  1
  H  H51  1  0.68050000  0.09480000  0.79710000  1
  H  H52  1  0.52400000  0.43730000  0.64330000  1
  H  H53  1  0.70910000  0.75320000  0.83290000  1
  H  H54  1  0.76270000  0.11530000  0.88860000  1
  H  H55  1  0.82330000  0.73820000  0.95730000  1
  H  H56  1  0.47600000  0.91330000  0.61930000  1
  H  H57  1  0.84160000  0.66320000  0.98720000  1
  H  H58  1  0.02330000  0.44010000  0.17020000  1
  H  H59  1  0.91420000  0.09570000  0.06150000  1
  H  H60  1  0.61530000  0.38860000  0.76270000  1
  H  H61  1  0.85440000  0.17600000  0.01280000  1
  H  H62  1  0.65840000  0.64560000  0.82160000  1
  H  H63  1  0.57970000  0.45590000  0.74680000  1
  H  H64  1  0.55990000  0.58320000  0.73010000  1
  H  H65  1  0.98720000  0.34160000  0.16320000  1
  H  H66  1  0.86600000  0.28090000  0.04270000  1
  H  H67  1  0.67600000  0.51280000  0.85440000  1
  H  H68  1  0.40520000  0.70230000  0.58570000  1
  H  H69  1  0.35270000  0.93850000  0.53420000  1
  H  H70  1  0.09480000  0.68050000  0.29710000  1
  H  H71  1  0.20230000  0.08570000  0.40520000  1
  H  H72  1  0.91330000  0.47600000  0.11930000  1
  H  H73  1  0.74680000  0.07970000  0.95590000  1
  H  H74  1  0.91490000  0.17670000  0.13400000  1
  H  H75  1  0.62590000  0.73730000  0.85260000  1
  H  H76  1  0.44010000  0.02330000  0.67020000  1
  H  H77  1  0.87410000  0.72670000  0.11140000  1
  H  H78  1  0.67670000  0.63400000  0.91490000  1
  H  H79  1  0.42030000  0.87620000  0.66710000  1
  H  H80  1  0.79090000  0.62380000  0.04410000  1
  H  H81  1  0.28090000  0.86600000  0.54270000  1
  H  H82  1  0.38470000  0.77330000  0.64740000  1
  H  H83  1  0.64690000  0.47670000  0.91680000  1
  H  H84  1  0.11530000  0.76270000  0.38860000  1
  H  H85  1  0.95730000  0.32330000  0.23820000  1
  H  H86  1  0.87620000  0.42030000  0.16710000  1
  H  H87  1  0.64330000  0.02400000  0.93730000  1
  H  H88  1  0.31950000  0.41430000  0.61660000  1
  H  H89  1  0.61660000  0.81950000  0.91430000  1
  H  H90  1  0.59570000  0.56150000  0.91420000  1
  H  H91  1  0.88340000  0.79770000  0.20290000  1
  H  H92  1  0.34160000  0.98720000  0.66320000  1
  H  H93  1  0.76180000  0.21910000  0.08510000  1
  H  H94  1  0.82160000  0.15840000  0.14560000  1
  H  H95  1  0.14690000  0.91680000  0.47670000  1
  H  H96  1  0.29090000  0.04410000  0.62380000  1
  H  H97  1  0.17600000  0.85440000  0.51280000  1
  H  H98  1  0.83680000  0.32400000  0.17840000  1
  H  H99  1  0.37410000  0.11140000  0.72670000  1
  H  H100  1  0.96580000  0.40430000  0.31850000  1
  H  H101  1  0.73010000  0.05990000  0.08320000  1
  H  H102  1  0.32400000  0.83680000  0.67840000  1
  H  H103  1  0.70600000  0.58670000  0.06270000  1
  H  H104  1  0.21910000  0.76180000  0.58510000  1
  H  H105  1  0.77330000  0.38470000  0.14740000  1
  H  H106  1  0.07970000  0.74680000  0.45590000  1
  H  H107  1  0.20600000  0.06270000  0.58670000  1
  H  H108  1  0.70230000  0.40520000  0.08570000  1
  H  H109  1  0.85260000  0.12590000  0.23730000  1
  H  H110  1  0.23730000  0.35260000  0.62590000  1
  H  H111  1  0.68150000  0.14730000  0.08580000  1
  H  H112  1  0.91430000  0.11660000  0.31950000  1
  H  H113  1  0.02400000  0.64330000  0.43730000  1
  H  H114  1  0.40430000  0.96580000  0.81850000  1
  H  H115  1  0.38340000  0.20290000  0.79770000  1
  H  H116  1  0.32330000  0.95730000  0.73820000  1
  H  H117  1  0.35310000  0.82980000  0.76990000  1
  H  H118  1  0.83290000  0.20910000  0.25320000  1
  H  H119  1  0.35670000  0.38070000  0.79400000  1
  H  H120  1  0.14730000  0.68150000  0.58580000  1
  H  H121  1  0.82980000  0.35310000  0.26990000  1
  H  H122  1  0.25320000  0.33290000  0.70910000  1
  H  H123  1  0.17670000  0.91490000  0.63400000  1
  H  H124  1  0.09570000  0.91420000  0.56150000  1
  H  H125  1  0.88070000  0.29400000  0.35670000  1
  H  H126  1  0.08320000  0.23010000  0.55990000  1
  H  H127  1  0.15840000  0.82160000  0.64560000  1
  H  H128  1  0.14560000  0.32160000  0.65840000  1
  H  H129  1  0.05990000  0.73010000  0.58320000  1
  H  H130  1  0.85670000  0.79400000  0.38070000  1
  H  H131  1  0.06150000  0.41420000  0.59570000  1
  H  H132  1  0.13400000  0.41490000  0.67670000  1
  H  H133  1  0.20910000  0.83290000  0.75320000  1
  H  H134  1  0.76990000  0.85310000  0.32980000  1
  H  H135  1  0.08580000  0.18150000  0.64730000  1
  H  H136  1  0.29400000  0.88070000  0.85670000  1
  H  H137  1  0.75320000  0.70910000  0.33290000  1
  H  H138  1  0.26990000  0.32980000  0.85310000  1
  H  H139  1  0.23820000  0.45730000  0.82330000  1
  H  H140  1  0.29770000  0.70290000  0.88340000  1
  H  H141  1  0.31850000  0.46580000  0.90430000  1
  H  H142  1  0.93730000  0.14330000  0.52400000  1
  H  H143  1  0.81950000  0.61660000  0.41430000  1
  H  H144  1  0.58580000  0.64730000  0.18150000  1
  H  H145  1  0.12590000  0.85260000  0.73730000  1
  H  H146  1  0.73730000  0.62590000  0.35260000  1
  H  H147  1  0.58570000  0.90520000  0.20230000  1
  H  H148  1  0.08670000  0.56270000  0.70600000  1
  H  H149  1  0.95590000  0.24680000  0.57970000  1
  H  H150  1  0.64740000  0.88470000  0.27330000  1
  H  H151  1  0.08510000  0.26180000  0.71910000  1
  H  H152  1  0.56270000  0.08670000  0.20600000  1
  H  H153  1  0.17840000  0.33680000  0.82400000  1
  H  H154  1  0.58320000  0.55990000  0.23010000  1
  H  H155  1  0.81850000  0.90430000  0.46580000  1
  H  H156  1  0.22670000  0.61140000  0.87410000  1
  H  H157  1  0.67840000  0.82400000  0.33680000  1
  H  H158  1  0.01280000  0.35440000  0.67600000  1
  H  H159  1  0.12380000  0.54410000  0.79090000  1
  H  H160  1  0.97670000  0.41680000  0.64690000  1
  H  H161  1  0.64560000  0.65840000  0.32160000  1
  H  H162  1  0.58510000  0.71910000  0.26180000  1
  H  H163  1  0.16320000  0.48720000  0.84160000  1
  H  H164  1  0.70290000  0.29770000  0.38340000  1
  H  H165  1  0.41420000  0.06150000  0.09570000  1
  H  H166  1  0.41430000  0.31950000  0.11660000  1
  H  H167  1  0.11660000  0.91430000  0.81950000  1
  H  H168  1  0.43730000  0.52400000  0.14330000  1
  H  H169  1  0.66710000  0.92030000  0.37620000  1
  H  H170  1  0.73820000  0.82330000  0.45730000  1
  H  H171  1  0.88860000  0.26270000  0.61530000  1
  H  H172  1  0.41680000  0.97670000  0.14690000  1
  H  H173  1  0.14740000  0.27330000  0.88470000  1
  H  H174  1  0.04270000  0.36600000  0.78090000  1
  H  H175  1  0.54410000  0.12380000  0.29090000  1
  H  H176  1  0.16710000  0.37620000  0.92030000  1
  H  H177  1  0.41490000  0.13400000  0.17670000  1
  H  H178  1  0.61140000  0.22670000  0.37410000  1
  H  H179  1  0.17020000  0.52330000  0.94010000  1
  H  H180  1  0.35260000  0.23730000  0.12590000  1
  H  H181  1  0.63400000  0.67670000  0.41490000  1
  H  H182  1  0.45590000  0.57970000  0.24680000  1
  H  H183  1  0.61930000  0.97600000  0.41330000  1
  H  H184  1  0.90520000  0.58570000  0.70230000  1
  H  H185  1  0.79710000  0.18050000  0.59480000  1
  H  H186  1  0.03420000  0.43850000  0.85270000  1
  H  H187  1  0.08570000  0.20230000  0.90520000  1
  H  H188  1  0.35440000  0.01280000  0.17600000  1
  H  H189  1  0.54270000  0.78090000  0.36600000  1
  H  H190  1  0.66320000  0.84160000  0.48720000  1
  H  H191  1  0.23010000  0.08320000  0.05990000  1
  H  H192  1  0.24680000  0.95590000  0.07970000  1
  H  H193  1  0.32160000  0.14560000  0.15840000  1
  H  H194  1  0.51280000  0.67600000  0.35440000  1
  H  H195  1  0.26270000  0.88860000  0.11530000  1
  H  H196  1  0.56150000  0.59570000  0.41420000  1
  H  H197  1  0.67020000  0.94010000  0.52330000  1
  H  H198  1  0.48720000  0.16320000  0.34160000  1
  H  H199  1  0.11930000  0.41330000  0.97600000  1
  H  H200  1  0.45730000  0.23820000  0.32330000  1
  H  H201  1  0.38860000  0.61530000  0.26270000  1
  H  H202  1  0.33290000  0.25320000  0.20910000  1
  H  H203  1  0.14330000  0.93730000  0.02400000  1
  H  H204  1  0.29710000  0.59480000  0.18050000  1
  H  H205  1  0.72670000  0.87410000  0.61140000  1
  H  H206  1  0.88470000  0.64740000  0.77330000  1
  H  H207  1  0.53420000  0.85270000  0.43850000  1
  H  H208  1  0.79770000  0.88340000  0.70290000  1
  H  H209  1  0.38070000  0.35670000  0.29400000  1
  H  H210  1  0.43850000  0.03420000  0.35270000  1
  H  H211  1  0.18050000  0.79710000  0.09480000  1
  H  H212  1  0.36600000  0.04270000  0.28090000  1
  H  H213  1  0.52330000  0.17020000  0.44010000  1
  H  H214  1  0.62380000  0.79090000  0.54410000  1
  H  H215  1  0.97600000  0.61930000  0.91330000  1
  H  H216  1  0.46580000  0.31850000  0.40430000  1
  H  H217  1  0.47670000  0.64690000  0.41680000  1
  H  H218  1  0.92030000  0.66710000  0.87620000  1
  H  H219  1  0.26180000  0.08510000  0.21910000  1
  H  H220  1  0.18150000  0.08580000  0.14730000  1
  H  H221  1  0.58670000  0.70600000  0.56270000  1
  H  H222  1  0.85310000  0.76990000  0.82980000  1
  H  H223  1  0.33680000  0.17840000  0.32400000  1
  C  C224  1  0.20400000  0.18130000  0.20410000  1
  C  C225  1  0.56060000  0.20990000  0.56450000  1
  C  C226  1  0.15210000  0.18240000  0.15730000  1
  C  C227  1  0.54330000  0.25830000  0.55200000  1
  C  C228  1  0.79410000  0.67950000  0.80340000  1
  C  C229  1  0.29920000  0.23350000  0.31130000  1
  C  C230  1  0.96850000  0.23190000  0.98180000  1
  C  C231  1  0.51750000  0.91010000  0.53240000  1
  C  C232  1  0.58990000  0.62230000  0.60740000  1
  C  C233  1  0.24990000  0.23660000  0.26810000  1
  C  C234  1  0.97720000  0.29590000  0.99990000  1
  C  C235  1  0.97730000  0.79600000  0.00010000  1
  C  C236  1  0.68840000  0.62320000  0.71120000  1
  C  C237  1  0.50520000  0.34790000  0.53030000  1
  C  C238  1  0.73020000  0.62250000  0.75770000  1
  C  C239  1  0.49480000  0.84270000  0.52510000  1
  C  C240  1  0.98670000  0.75010000  0.01820000  1
  C  C241  1  0.14290000  0.23620000  0.17510000  1
  C  C242  1  0.48250000  0.39260000  0.51490000  1
  C  C243  1  0.08960000  0.23940000  0.13020000  1
  C  C244  1  0.24170000  0.29370000  0.28500000  1
  C  C245  1  0.18860000  0.29250000  0.23910000  1
  C  C246  1  0.45670000  0.71500000  0.50870000  1
  C  C247  1  0.55050000  0.31140000  0.60390000  1
  C  C248  1  0.29010000  0.35460000  0.35070000  1
  C  C249  1  0.53220000  0.35710000  0.59330000  1
  C  C250  1  0.43940000  0.64930000  0.50390000  1
  C  C251  1  0.91200000  0.78880000  0.97720000  1
  C  C252  1  0.92220000  0.18870000  0.98790000  1
  C  C253  1  0.07960000  0.29060000  0.15180000  1
  C  C254  1  0.93430000  0.70080000  0.01210000  1
  C  C255  1  0.34820000  0.13880000  0.42780000  1
  C  C256  1  0.17470000  0.34570000  0.25660000  1
  C  C257  1  0.93480000  0.31160000  0.02280000  1
  C  C258  1  0.58190000  0.32530000  0.67100000  1
  C  C259  1  0.36980000  0.10920000  0.45940000  1
  C  C260  1  0.87770000  0.98510000  0.96760000  1
  C  C261  1  0.12060000  0.34040000  0.21300000  1
  C  C262  1  0.46780000  0.82490000  0.56110000  1
  C  C263  1  0.44950000  0.76090000  0.55340000  1
  C  C264  1  0.41010000  0.03240000  0.51750000  1
  C  C265  1  0.86480000  0.74230000  0.97250000  1
  C  C266  1  0.54060000  0.41040000  0.64980000  1
  C  C267  1  0.87610000  0.69660000  0.99070000  1
  C  C268  1  0.28700000  0.12740000  0.40760000  1
  C  C269  1  0.91010000  0.51750000  0.03240000  1
  C  C270  1  0.76980000  0.52750000  0.89230000  1
  C  C271  1  0.81160000  0.52280000  0.93480000  1
  C  C272  1  0.88540000  0.20590000  0.00930000  1
  C  C273  1  0.59240000  0.37940000  0.71980000  1
  C  C274  1  0.76060000  0.85020000  0.89080000  1
  C  C275  1  0.89230000  0.26980000  0.02750000  1
  C  C276  1  0.57220000  0.42040000  0.71100000  1
  C  C277  1  0.32490000  0.06110000  0.46780000  1
  C  C278  1  0.56450000  0.06060000  0.70990000  1
  C  C279  1  0.06060000  0.56450000  0.20990000  1
  C  C280  1  0.45940000  0.86980000  0.60920000  1
  C  C281  1  0.70940000  0.78900000  0.86120000  1
  C  C282  1  0.34270000  0.02510000  0.49480000  1
  C  C283  1  0.67100000  0.08190000  0.82530000  1
  C  C284  1  0.81760000  0.96970000  0.97490000  1
  C  C285  1  0.71980000  0.09240000  0.87940000  1
  C  C286  1  0.41810000  0.74340000  0.58910000  1
  C  C287  1  0.24340000  0.08910000  0.41810000  1
  C  C288  1  0.76380000  0.90670000  0.93890000  1
  C  C289  1  0.70590000  0.50930000  0.88540000  1
  C  C290  1  0.79590000  0.49990000  0.97720000  1
  C  C291  1  0.84270000  0.49480000  0.02510000  1
  C  C292  1  0.87680000  0.08800000  0.06520000  1
  C  C293  1  0.26090000  0.05340000  0.44950000  1
  C  C294  1  0.01210000  0.43430000  0.20080000  1
  C  C295  1  0.62390000  0.61460000  0.82050000  1
  C  C296  1  0.56570000  0.57780000  0.76650000  1
  C  C297  1  0.29590000  0.97720000  0.49990000  1
  C  C298  1  0.81870000  0.02270000  0.02280000  1
  C  C299  1  0.99070000  0.37610000  0.19660000  1
  C  C300  1  0.55200000  0.04330000  0.75830000  1
  C  C301  1  0.60390000  0.05050000  0.81140000  1
  C  C302  1  0.71100000  0.07220000  0.92040000  1
  C  C303  1  0.43550000  0.49610000  0.64540000  1
  C  C304  1  0.42780000  0.84820000  0.63880000  1
  C  C305  1  0.31160000  0.93480000  0.52280000  1
  C  C306  1  0.65960000  0.78020000  0.87260000  1
  C  C307  1  0.04330000  0.55200000  0.25830000  1
  C  C308  1  0.40760000  0.78700000  0.62740000  1
  C  C309  1  0.87750000  0.13520000  0.10770000  1
  C  C310  1  0.01820000  0.48670000  0.25010000  1
  C  C311  1  0.68870000  0.48790000  0.92220000  1
  C  C312  1  0.82490000  0.46780000  0.06110000  1
  C  C313  1  0.73190000  0.48180000  0.96850000  1
  C  C314  1  0.70750000  0.89610000  0.94660000  1
  C  C315  1  0.86980000  0.45940000  0.10920000  1
  C  C316  1  0.21500000  0.00870000  0.45670000  1
  C  C317  1  0.63520000  0.60770000  0.87750000  1
  C  C318  1  0.08190000  0.67100000  0.32530000  1
  C  C319  1  0.23190000  0.96850000  0.48180000  1
  C  C320  1  0.51330000  0.53150000  0.76340000  1
  C  C321  1  0.65430000  0.82900000  0.91090000  1
  C  C322  1  0.26980000  0.89230000  0.52750000  1
  C  C323  1  0.44800000  0.49130000  0.70630000  1
  C  C324  1  0.64980000  0.04060000  0.91040000  1
  C  C325  1  0.05050000  0.60390000  0.31140000  1
  C  C326  1  0.48670000  0.01820000  0.75010000  1
  C  C327  1  0.59330000  0.03220000  0.85710000  1
  C  C328  1  0.43430000  0.01210000  0.70080000  1
  C  C329  1  0.76340000  0.01330000  0.03150000  1
  C  C330  1  0.97250000  0.36480000  0.24230000  1
  C  C331  1  0.84040000  0.71300000  0.12060000  1
  C  C332  1  0.70630000  0.94800000  0.99130000  1
  C  C333  1  0.09240000  0.71980000  0.37940000  1
  C  C334  1  0.58800000  0.56520000  0.87680000  1
  C  C335  1  0.79060000  0.65180000  0.07960000  1
  C  C336  1  0.14930000  0.00390000  0.43940000  1
  C  C337  1  0.84820000  0.42780000  0.13880000  1
  C  C338  1  0.76090000  0.44950000  0.05340000  1
  C  C339  1  0.71500000  0.45670000  0.00870000  1
  C  C340  1  0.82050000  0.12390000  0.11460000  1
  C  C341  1  0.00010000  0.47730000  0.29600000  1
  C  C342  1  0.52270000  0.52280000  0.81870000  1
  C  C343  1  0.18870000  0.92220000  0.48790000  1
  C  C344  1  0.20590000  0.88540000  0.50930000  1
  C  C345  1  0.76650000  0.06570000  0.07780000  1
  C  C346  1  0.39610000  0.44660000  0.70750000  1
  C  C347  1  0.97720000  0.41200000  0.28880000  1
  C  C348  1  0.53030000  0.00520000  0.84790000  1
  C  C349  1  0.47730000  0.00010000  0.79600000  1
  C  C350  1  0.37610000  0.99070000  0.69660000  1
  C  C351  1  0.03220000  0.59330000  0.35710000  1
  C  C352  1  0.32900000  0.41090000  0.65430000  1
  C  C353  1  0.84570000  0.75660000  0.17470000  1
  C  C354  1  0.78700000  0.40760000  0.12740000  1
  C  C355  1  0.00520000  0.53030000  0.34790000  1
  C  C356  1  0.74340000  0.41810000  0.08910000  1
  C  C357  1  0.46970000  0.47490000  0.81760000  1
  C  C358  1  0.07220000  0.71100000  0.42040000  1
  C  C359  1  0.73940000  0.63020000  0.08960000  1
  C  C360  1  0.64540000  0.93550000  0.99610000  1
  C  C361  1  0.64930000  0.43940000  0.00390000  1
  C  C362  1  0.40670000  0.43890000  0.76380000  1
  C  C363  1  0.29060000  0.07960000  0.65180000  1
  C  C364  1  0.75770000  0.23020000  0.12250000  1
  C  C365  1  0.04060000  0.64980000  0.41040000  1
  C  C366  1  0.34040000  0.12060000  0.71300000  1
  C  C367  1  0.80340000  0.29410000  0.17950000  1
  C  C368  1  0.41200000  0.97720000  0.78880000  1
  C  C369  1  0.36480000  0.97250000  0.74230000  1
  C  C370  1  0.51490000  0.98250000  0.89260000  1
  C  C371  1  0.28020000  0.37260000  0.65960000  1
  C  C372  1  0.29410000  0.80340000  0.67950000  1
  C  C373  1  0.23940000  0.08960000  0.63020000  1
  C  C374  1  0.23020000  0.75770000  0.62250000  1
  C  C375  1  0.48510000  0.46760000  0.87770000  1
  C  C376  1  0.79250000  0.73910000  0.18860000  1
  C  C377  1  0.73620000  0.67510000  0.14290000  1
  C  C378  1  0.87260000  0.15960000  0.28020000  1
  C  C379  1  0.98250000  0.51490000  0.39260000  1
  C  C380  1  0.35020000  0.39080000  0.76060000  1
  C  C381  1  0.34570000  0.17470000  0.75660000  1
  C  C382  1  0.71120000  0.18840000  0.12320000  1
  C  C383  1  0.91090000  0.15430000  0.32900000  1
  C  C384  1  0.28900000  0.36120000  0.70940000  1
  C  C385  1  0.31130000  0.79920000  0.73350000  1
  C  C386  1  0.86120000  0.20940000  0.28900000  1
  C  C387  1  0.79920000  0.31130000  0.23350000  1
  C  C388  1  0.18840000  0.71120000  0.62320000  1
  C  C389  1  0.85460000  0.85070000  0.29010000  1
  C  C390  1  0.23620000  0.14290000  0.67510000  1
  C  C391  1  0.99610000  0.14540000  0.43550000  1
  C  C392  1  0.29250000  0.18860000  0.73910000  1
  C  C393  1  0.79370000  0.78500000  0.24170000  1
  C  C394  1  0.94660000  0.20750000  0.39610000  1
  C  C395  1  0.99130000  0.20630000  0.44800000  1
  C  C396  1  0.89080000  0.26060000  0.35020000  1
  C  C397  1  0.12230000  0.10740000  0.58990000  1
  C  C398  1  0.93890000  0.26380000  0.40670000  1
  C  C399  1  0.26810000  0.74990000  0.73660000  1
  C  C400  1  0.68240000  0.65730000  0.15210000  1
  C  C401  1  0.13520000  0.87750000  0.60770000  1
  C  C402  1  0.18240000  0.15210000  0.65730000  1
  C  C403  1  0.20410000  0.70400000  0.68130000  1
  C  C404  1  0.08800000  0.87680000  0.56520000  1
  C  C405  1  0.70400000  0.20410000  0.18130000  1
  C  C406  1  0.03150000  0.26340000  0.51330000  1
  C  C407  1  0.98510000  0.87770000  0.46760000  1
  C  C408  1  0.62230000  0.58990000  0.10740000  1
  C  C409  1  0.74990000  0.26810000  0.23660000  1
  C  C410  1  0.07780000  0.26650000  0.56570000  1
  C  C411  1  0.12390000  0.82050000  0.61460000  1
  C  C412  1  0.29370000  0.24170000  0.78500000  1
  C  C413  1  0.97490000  0.31760000  0.46970000  1
  C  C414  1  0.35460000  0.29010000  0.85070000  1
  C  C415  1  0.02280000  0.31870000  0.52270000  1
  C  C416  1  0.02270000  0.81870000  0.52280000  1
  C  C417  1  0.35070000  0.79010000  0.85460000  1
  C  C418  1  0.96970000  0.81760000  0.47490000  1
  C  C419  1  0.28500000  0.74170000  0.79370000  1
  C  C420  1  0.11460000  0.32050000  0.62390000  1
  C  C421  1  0.06570000  0.76650000  0.57780000  1
  C  C422  1  0.73660000  0.76810000  0.24990000  1
  C  C423  1  0.60740000  0.08990000  0.12230000  1
  C  C424  1  0.96760000  0.37770000  0.48510000  1
  C  C425  1  0.01330000  0.76340000  0.53150000  1
  C  C426  1  0.68130000  0.70410000  0.20400000  1
  C  C427  1  0.18130000  0.20400000  0.70410000  1
  C  C428  1  0.06520000  0.37680000  0.58800000  1
  C  C429  1  0.15730000  0.65210000  0.68240000  1
  C  C430  1  0.10770000  0.37750000  0.63520000  1
  C  C431  1  0.65210000  0.15730000  0.18240000  1
  C  C432  1  0.23660000  0.24990000  0.76810000  1
  C  C433  1  0.90670000  0.76380000  0.43890000  1
  C  C434  1  0.08990000  0.60740000  0.62230000  1
  C  C435  1  0.85020000  0.76060000  0.39080000  1
  C  C436  1  0.94800000  0.70630000  0.49130000  1
  C  C437  1  0.89610000  0.70750000  0.44660000  1
  C  C438  1  0.74170000  0.28500000  0.29370000  1
  C  C439  1  0.23910000  0.68860000  0.79250000  1
  C  C440  1  0.93550000  0.64540000  0.49610000  1
  C  C441  1  0.17510000  0.64290000  0.73620000  1
  C  C442  1  0.79010000  0.35070000  0.35460000  1
  C  C443  1  0.12320000  0.21120000  0.68840000  1
  C  C444  1  0.73350000  0.81130000  0.29920000  1
  C  C445  1  0.78900000  0.70940000  0.36120000  1
  C  C446  1  0.23350000  0.29920000  0.81130000  1
  C  C447  1  0.20940000  0.86120000  0.78900000  1
  C  C448  1  0.82900000  0.65430000  0.41090000  1
  C  C449  1  0.62320000  0.68840000  0.21120000  1
  C  C450  1  0.25660000  0.67470000  0.84570000  1
  C  C451  1  0.26060000  0.89080000  0.85020000  1
  C  C452  1  0.89260000  0.01490000  0.48250000  1
  C  C453  1  0.78020000  0.65960000  0.37260000  1
  C  C454  1  0.64290000  0.17510000  0.23620000  1
  C  C455  1  0.68860000  0.23910000  0.29250000  1
  C  C456  1  0.37770000  0.96760000  0.98510000  1
  C  C457  1  0.12250000  0.25770000  0.73020000  1
  C  C458  1  0.13020000  0.58960000  0.73940000  1
  C  C459  1  0.17950000  0.30340000  0.79410000  1
  C  C460  1  0.15960000  0.87260000  0.78020000  1
  C  C461  1  0.39260000  0.48250000  0.01490000  1
  C  C462  1  0.24230000  0.47250000  0.86480000  1
  C  C463  1  0.28880000  0.47720000  0.91200000  1
  C  C464  1  0.67950000  0.79410000  0.30340000  1
  C  C465  1  0.21300000  0.62060000  0.84040000  1
  C  C466  1  0.91040000  0.14980000  0.54060000  1
  C  C467  1  0.62250000  0.73020000  0.25770000  1
  C  C468  1  0.15180000  0.57960000  0.79060000  1
  C  C469  1  0.26380000  0.93890000  0.90670000  1
  C  C470  1  0.50390000  0.93940000  0.14930000  1
  C  C471  1  0.49610000  0.43550000  0.14540000  1
  C  C472  1  0.58960000  0.13020000  0.23940000  1
  C  C473  1  0.92040000  0.21100000  0.57220000  1
  C  C474  1  0.31760000  0.97490000  0.96970000  1
  C  C475  1  0.58910000  0.91810000  0.24340000  1
  C  C476  1  0.84790000  0.03030000  0.50520000  1
  C  C477  1  0.62740000  0.90760000  0.28700000  1
  C  C478  1  0.67470000  0.25660000  0.34570000  1
  C  C479  1  0.15430000  0.91090000  0.82900000  1
  C  C480  1  0.85710000  0.09330000  0.53220000  1
  C  C481  1  0.19660000  0.49070000  0.87610000  1
  C  C482  1  0.29600000  0.50010000  0.97730000  1
  C  C483  1  0.34790000  0.50520000  0.03030000  1
  C  C484  1  0.78880000  0.91200000  0.47720000  1
  C  C485  1  0.20750000  0.94660000  0.89610000  1
  C  C486  1  0.57780000  0.56570000  0.26650000  1
  C  C487  1  0.00930000  0.38540000  0.70590000  1
  C  C488  1  0.98790000  0.42220000  0.68870000  1
  C  C489  1  0.31870000  0.02280000  0.02270000  1
  C  C490  1  0.79600000  0.97730000  0.50010000  1
  C  C491  1  0.61460000  0.62390000  0.32050000  1
  C  C492  1  0.50870000  0.95670000  0.21500000  1
  C  C493  1  0.55340000  0.94950000  0.26090000  1
  C  C494  1  0.63880000  0.92780000  0.34820000  1
  C  C495  1  0.93940000  0.50390000  0.64930000  1
  C  C496  1  0.57960000  0.15180000  0.29060000  1
  C  C497  1  0.37680000  0.06520000  0.08800000  1
  C  C498  1  0.87940000  0.21980000  0.59240000  1
  C  C499  1  0.49130000  0.44800000  0.20630000  1
  C  C500  1  0.62060000  0.21300000  0.34040000  1
  C  C501  1  0.74230000  0.86480000  0.47250000  1
  C  C502  1  0.53150000  0.51330000  0.26340000  1
  C  C503  1  0.20080000  0.51210000  0.93430000  1
  C  C504  1  0.35710000  0.53220000  0.09330000  1
  C  C505  1  0.25010000  0.51820000  0.98670000  1
  C  C506  1  0.81140000  0.10390000  0.55050000  1
  C  C507  1  0.41040000  0.54060000  0.14980000  1
  C  C508  1  0.20630000  0.99130000  0.94800000  1
  C  C509  1  0.02750000  0.39230000  0.76980000  1
  C  C510  1  0.41090000  0.32900000  0.15430000  1
  C  C511  1  0.26340000  0.03150000  0.01330000  1
  C  C512  1  0.98180000  0.46850000  0.73190000  1
  C  C513  1  0.82530000  0.17100000  0.58190000  1
  C  C514  1  0.37750000  0.10770000  0.13520000  1
  C  C515  1  0.95670000  0.50870000  0.71500000  1
  C  C516  1  0.60920000  0.95940000  0.36980000  1
  C  C517  1  0.44660000  0.39610000  0.20750000  1
  C  C518  1  0.46850000  0.98180000  0.23190000  1
  C  C519  1  0.56110000  0.96780000  0.32490000  1
  C  C520  1  0.42220000  0.98790000  0.18870000  1
  C  C521  1  0.75010000  0.98670000  0.51820000  1
  C  C522  1  0.60770000  0.63520000  0.37750000  1
  C  C523  1  0.12740000  0.28700000  0.90760000  1
  C  C524  1  0.75830000  0.05200000  0.54330000  1
  C  C525  1  0.37260000  0.28020000  0.15960000  1
  C  C526  1  0.02280000  0.43480000  0.81160000  1
  C  C527  1  0.13880000  0.34820000  0.92780000  1
  C  C528  1  0.14540000  0.99610000  0.93550000  1
  C  C529  1  0.42040000  0.57220000  0.21100000  1
  C  C530  1  0.31140000  0.55050000  0.10390000  1
  C  C531  1  0.25830000  0.54330000  0.05200000  1
  C  C532  1  0.69660000  0.87610000  0.49070000  1
  C  C533  1  0.52280000  0.52270000  0.31870000  1
  C  C534  1  0.99990000  0.47720000  0.79590000  1
  C  C535  1  0.26650000  0.07780000  0.06570000  1
  C  C536  1  0.32050000  0.11460000  0.12390000  1
  C  C537  1  0.70080000  0.93430000  0.51210000  1
  C  C538  1  0.94950000  0.55340000  0.76090000  1
  C  C539  1  0.56520000  0.58800000  0.37680000  1
  C  C540  1  0.52510000  0.99480000  0.34270000  1
  C  C541  1  0.47720000  0.99990000  0.29590000  1
  C  C542  1  0.38540000  0.00930000  0.20590000  1
  C  C543  1  0.43890000  0.40670000  0.26380000  1
  C  C544  1  0.91810000  0.58910000  0.74340000  1
  C  C545  1  0.08910000  0.24340000  0.91810000  1
  C  C546  1  0.37940000  0.59240000  0.21980000  1
  C  C547  1  0.47490000  0.46970000  0.31760000  1
  C  C548  1  0.32530000  0.58190000  0.17100000  1
  C  C549  1  0.99480000  0.52510000  0.84270000  1
  C  C550  1  0.36120000  0.28900000  0.20940000  1
  C  C551  1  0.10920000  0.36980000  0.95940000  1
  C  C552  1  0.70990000  0.06450000  0.56060000  1
  C  C553  1  0.20990000  0.56060000  0.06450000  1
  C  C554  1  0.96780000  0.56110000  0.82490000  1
  C  C555  1  0.21100000  0.92040000  0.07220000  1
  C  C556  1  0.52750000  0.76980000  0.39230000  1
  C  C557  1  0.39080000  0.35020000  0.26060000  1
  C  C558  1  0.21980000  0.87940000  0.09240000  1
  C  C559  1  0.50930000  0.70590000  0.38540000  1
  C  C560  1  0.43480000  0.02280000  0.31160000  1
  C  C561  1  0.39230000  0.02750000  0.26980000  1
  C  C562  1  0.53240000  0.01750000  0.41010000  1
  C  C563  1  0.90760000  0.62740000  0.78700000  1
  C  C564  1  0.49070000  0.19660000  0.37610000  1
  C  C565  1  0.14980000  0.91040000  0.04060000  1
  C  C566  1  0.47250000  0.24230000  0.36480000  1
  C  C567  1  0.01750000  0.53240000  0.91010000  1
  C  C568  1  0.05340000  0.26090000  0.94950000  1
  C  C569  1  0.06110000  0.32490000  0.96780000  1
  C  C570  1  0.71300000  0.84040000  0.62060000  1
  C  C571  1  0.46760000  0.48510000  0.37770000  1
  C  C572  1  0.95940000  0.60920000  0.86980000  1
  C  C573  1  0.17100000  0.82530000  0.08190000  1
  C  C574  1  0.52280000  0.81160000  0.43480000  1
  C  C575  1  0.75660000  0.84570000  0.67470000  1
  C  C576  1  0.92780000  0.63880000  0.84820000  1
  C  C577  1  0.51210000  0.20080000  0.43430000  1
  C  C578  1  0.65180000  0.79060000  0.57960000  1
  C  C579  1  0.48790000  0.68870000  0.42220000  1
  C  C580  1  0.47720000  0.28880000  0.41200000  1
  C  C581  1  0.00390000  0.14930000  0.93940000  1
  C  C582  1  0.09330000  0.85710000  0.03220000  1
  C  C583  1  0.85070000  0.85460000  0.79010000  1
  C  C584  1  0.10390000  0.81140000  0.05050000  1
  C  C585  1  0.00870000  0.21500000  0.95670000  1
  C  C586  1  0.73910000  0.79250000  0.68860000  1
  C  C587  1  0.78500000  0.79370000  0.74170000  1
  C  C588  1  0.63020000  0.73940000  0.58960000  1
  C  C589  1  0.01490000  0.89260000  0.98250000  1
  C  C590  1  0.67510000  0.73620000  0.64290000  1
  C  C591  1  0.51820000  0.25010000  0.48670000  1
  C  C592  1  0.02510000  0.34270000  0.99480000  1
  C  C593  1  0.25770000  0.12250000  0.23020000  1
  C  C594  1  0.03030000  0.84790000  0.00520000  1
  C  C595  1  0.50010000  0.29600000  0.47730000  1
  C  C596  1  0.21120000  0.12320000  0.18840000  1
  C  C597  1  0.49990000  0.79590000  0.47720000  1
  C  C598  1  0.76810000  0.73660000  0.74990000  1
  C  C599  1  0.10740000  0.12230000  0.08990000  1
  C  C600  1  0.03240000  0.41010000  0.01750000  1
  C  C601  1  0.48180000  0.73190000  0.46850000  1
  C  C602  1  0.81130000  0.73350000  0.79920000  1
  C  C603  1  0.30340000  0.17950000  0.29410000  1
  C  C604  1  0.05200000  0.75830000  0.04330000  1
  C  C605  1  0.65730000  0.68240000  0.65210000  1
  C  C606  1  0.06450000  0.70990000  0.06060000  1
  C  C607  1  0.70410000  0.68130000  0.70400000  1
  O  O608  1  0.58314000  0.08314000  0.58314000  1
  O  O609  1  0.08314000  0.58314000  0.08314000  1
  O  O610  1  0.52375000  0.44811000  0.53524000  1
  O  O611  1  0.06495000  0.44864000  0.07869000  1
  O  O612  1  0.05189000  0.08713000  0.07564000  1
  O  O613  1  0.31960000  0.40770000  0.35110000  1
  O  O614  1  0.47625000  0.92436000  0.51149000  1
  O  O615  1  0.05280000  0.70255000  0.10409000  1
  O  O616  1  0.88369000  0.01374000  0.93505000  1
  O  O617  1  0.42436000  0.01149000  0.47625000  1
  O  O618  1  0.39591000  0.59846000  0.44871000  1
  O  O619  1  0.53150000  0.18040000  0.58810000  1
  O  O620  1  0.42131000  0.36995000  0.48626000  1
  O  O621  1  0.91287000  0.96476000  0.98851000  1
  O  O622  1  0.55136000  0.61631000  0.63005000  1
  O  O623  1  0.41686000  0.50000000  0.50000000  1
  O  O624  1  0.92436000  0.47625000  0.01149000  1
  O  O625  1  0.46850000  0.64890000  0.55660000  1
  O  O626  1  0.58810000  0.03150000  0.68040000  1
  O  O627  1  0.10409000  0.55280000  0.20255000  1
  O  O628  1  0.29745000  0.35025000  0.40154000  1
  O  O629  1  0.94864000  0.57869000  0.06495000  1
  O  O630  1  0.44864000  0.06495000  0.57869000  1
  O  O631  1  0.03150000  0.58810000  0.18040000  1
  O  O632  1  0.55280000  0.10409000  0.70255000  1
  O  O633  1  0.41190000  0.44340000  0.59230000  1
  O  O634  1  0.44720000  0.55129000  0.64975000  1
  O  O635  1  0.09846000  0.94871000  0.39591000  1
  O  O636  1  0.14890000  0.05660000  0.46850000  1
  O  O637  1  0.59846000  0.39591000  0.94871000  1
  O  O638  1  0.59230000  0.91190000  0.94340000  1
  O  O639  1  0.51374000  0.43505000  0.88369000  1
  O  O640  1  0.48626000  0.92131000  0.86995000  1
  O  O641  1  0.05129000  0.14975000  0.44720000  1
  O  O642  1  0.64975000  0.94720000  0.05129000  1
  O  O643  1  0.64890000  0.46850000  0.05660000  1
  O  O644  1  0.90770000  0.85110000  0.31960000  1
  O  O645  1  0.53524000  0.02375000  0.94811000  1
  O  O646  1  1.00000000  1.00000000  0.41686000  1
  O  O647  1  0.01374000  0.88369000  0.43505000  1
  O  O648  1  0.02375000  0.53524000  0.44811000  1
  O  O649  1  0.11631000  0.13005000  0.55136000  1
  O  O650  1  0.40770000  0.31960000  0.85110000  1
  O  O651  1  0.85025000  0.90154000  0.29745000  1
  O  O652  1  0.46476000  0.48851000  0.91287000  1
  O  O653  1  0.92131000  0.48626000  0.36995000  1
  O  O654  1  0.40154000  0.79745000  0.85025000  1
  O  O655  1  0.58713000  0.57564000  0.05189000  1
  O  O656  1  0.94340000  0.09230000  0.41190000  1
  O  O657  1  0.98851000  0.41287000  0.46476000  1
  O  O658  1  0.63005000  0.05136000  0.11631000  1
  O  O659  1  0.08713000  0.05189000  0.57564000  1
  O  O660  1  0.50000000  0.91686000  0.00000000  1
  O  O661  1  0.50000000  0.41686000  0.00000000  1
  O  O662  1  0.07564000  0.55189000  0.58713000  1
  O  O663  1  0.61631000  0.55136000  0.13005000  1
  O  O664  1  0.96476000  0.91287000  0.48851000  1
  O  O665  1  0.91190000  0.59230000  0.44340000  1
  O  O666  1  0.55189000  0.07564000  0.08713000  1
  O  O667  1  0.35025000  0.29745000  0.90154000  1
  O  O668  1  0.86995000  0.98626000  0.42131000  1
  O  O669  1  0.41287000  0.98851000  0.96476000  1
  O  O670  1  0.79745000  0.40154000  0.35025000  1
  O  O671  1  0.35110000  0.81960000  0.90770000  1
  O  O672  1  0.05136000  0.63005000  0.61631000  1
  O  O673  1  0.94811000  0.03524000  0.52375000  1
  O  O674  1  0.93505000  0.38369000  0.51374000  1
  O  O675  1  0.91686000  0.50000000  0.50000000  1
  O  O676  1  0.44811000  0.52375000  0.03524000  1
  O  O677  1  0.81960000  0.35110000  0.40770000  1
  O  O678  1  0.55660000  0.96850000  0.14890000  1
  O  O679  1  0.55129000  0.44720000  0.14975000  1
  O  O680  1  0.94720000  0.64975000  0.55129000  1
  O  O681  1  0.36995000  0.42131000  0.98626000  1
  O  O682  1  0.38369000  0.93505000  0.01374000  1
  O  O683  1  0.44340000  0.41190000  0.09230000  1
  O  O684  1  0.44871000  0.89591000  0.09846000  1
  O  O685  1  0.96850000  0.55660000  0.64890000  1
  O  O686  1  0.89591000  0.44871000  0.59846000  1
  O  O687  1  0.14975000  0.05129000  0.94720000  1
  O  O688  1  0.09230000  0.94340000  0.91190000  1
  O  O689  1  0.20255000  0.60409000  0.05280000  1
  O  O690  1  0.68040000  0.08810000  0.53150000  1
  O  O691  1  0.07869000  0.56495000  0.94864000  1
  O  O692  1  0.56495000  0.07869000  0.44864000  1
  O  O693  1  0.90154000  0.85025000  0.79745000  1
  O  O694  1  0.70255000  0.05280000  0.60409000  1
  O  O695  1  0.18040000  0.53150000  0.08810000  1
  O  O696  1  0.05660000  0.14890000  0.96850000  1
  O  O697  1  0.51149000  0.97625000  0.42436000  1
  O  O698  1  1.00000000  1.00000000  0.91686000  1
  O  O699  1  0.13005000  0.11631000  0.05136000  1
  O  O700  1  0.48851000  0.46476000  0.41287000  1
  O  O701  1  0.98626000  0.86995000  0.92131000  1
  O  O702  1  0.08810000  0.68040000  0.03150000  1
  O  O703  1  0.94871000  0.09846000  0.89591000  1
  O  O704  1  0.97625000  0.51149000  0.92436000  1
  O  O705  1  0.43505000  0.51374000  0.38369000  1
  O  O706  1  0.60409000  0.20255000  0.55280000  1
  O  O707  1  0.01149000  0.42436000  0.97625000  1
  O  O708  1  0.85110000  0.90770000  0.81960000  1
  O  O709  1  0.57564000  0.58713000  0.55189000  1
  O  O710  1  0.57869000  0.94864000  0.56495000  1
  O  O711  1  0.03524000  0.94811000  0.02375000  1
