# generated using pymatgen
data_U3H12(C3O2)8
_symmetry_space_group_name_H-M   'P 1'
_cell_length_a   15.21350000
_cell_length_b   15.21350000
_cell_length_c   15.21350000
_cell_angle_alpha   60.00000000
_cell_angle_beta   60.00000000
_cell_angle_gamma   60.00000000
_symmetry_Int_Tables_number   1
_chemical_formula_structural   U3H12(C3O2)8
_chemical_formula_sum   'U6 H24 C48 O32'
_cell_volume   2489.84561225
_cell_formula_units_Z   2
loop_
 _symmetry_equiv_pos_site_id
 _symmetry_equiv_pos_as_xyz
  1  'x, y, z'
loop_
 _atom_site_type_symbol
 _atom_site_label
 _atom_site_symmetry_multiplicity
 _atom_site_fract_x
 _atom_site_fract_y
 _atom_site_fract_z
 _atom_site_occupancy
  U  U0  1  0.12601000  0.12601000  0.87399000  1
  U  U1  1  0.12601000  0.87399000  0.87399000  1
  U  U2  1  0.87399000  0.12601000  0.87399000  1
  U  U3  1  0.12601000  0.87399000  0.12601000  1
  U  U4  1  0.87399000  0.12601000  0.12601000  1
  U  U5  1  0.87399000  0.87399000  0.12601000  1
  H  H6  1  0.13568000  0.42170000  0.86432000  1
  H  H7  1  0.42170000  0.13568000  0.86432000  1
  H  H8  1  0.13568000  0.57830000  0.86432000  1
  H  H9  1  0.57830000  0.13568000  0.86432000  1
  H  H10  1  0.42170000  0.57830000  0.86432000  1
  H  H11  1  0.57830000  0.42170000  0.86432000  1
  H  H12  1  0.13568000  0.42170000  0.57830000  1
  H  H13  1  0.42170000  0.13568000  0.57830000  1
  H  H14  1  0.13568000  0.86432000  0.57830000  1
  H  H15  1  0.86432000  0.13568000  0.57830000  1
  H  H16  1  0.42170000  0.86432000  0.57830000  1
  H  H17  1  0.86432000  0.42170000  0.57830000  1
  H  H18  1  0.13568000  0.57830000  0.42170000  1
  H  H19  1  0.57830000  0.13568000  0.42170000  1
  H  H20  1  0.13568000  0.86432000  0.42170000  1
  H  H21  1  0.86432000  0.13568000  0.42170000  1
  H  H22  1  0.57830000  0.86432000  0.42170000  1
  H  H23  1  0.86432000  0.57830000  0.42170000  1
  H  H24  1  0.42170000  0.57830000  0.13568000  1
  H  H25  1  0.57830000  0.42170000  0.13568000  1
  H  H26  1  0.42170000  0.86432000  0.13568000  1
  H  H27  1  0.86432000  0.42170000  0.13568000  1
  H  H28  1  0.57830000  0.86432000  0.13568000  1
  H  H29  1  0.86432000  0.57830000  0.13568000  1
  C  C30  1  0.30980000  0.69020000  0.00000000  1
  C  C31  1  0.40840000  0.59160000  0.00000000  1
  C  C32  1  0.59160000  0.40840000  0.00000000  1
  C  C33  1  0.69020000  0.30980000  0.00000000  1
  C  C34  1  0.30980000  0.00000000  0.00000000  1
  C  C35  1  0.00000000  0.30980000  0.00000000  1
  C  C36  1  0.40840000  0.00000000  0.00000000  1
  C  C37  1  0.00000000  0.40840000  0.00000000  1
  C  C38  1  0.59160000  0.00000000  0.00000000  1
  C  C39  1  1.00000000  0.59160000  0.00000000  1
  C  C40  1  0.69020000  0.00000000  0.00000000  1
  C  C41  1  1.00000000  0.69020000  0.00000000  1
  C  C42  1  0.08130000  0.45370000  0.91870000  1
  C  C43  1  0.45370000  0.08130000  0.91870000  1
  C  C44  1  0.08130000  0.54630000  0.91870000  1
  C  C45  1  0.54630000  0.08130000  0.91870000  1
  C  C46  1  0.45370000  0.54630000  0.91870000  1
  C  C47  1  0.54630000  0.45370000  0.91870000  1
  C  C48  1  0.30980000  0.00000000  0.69020000  1
  C  C49  1  0.00000000  0.30980000  0.69020000  1
  C  C50  1  0.00000000  0.00000000  0.69020000  1
  C  C51  1  0.40840000  0.00000000  0.59160000  1
  C  C52  1  0.00000000  0.00000000  0.59160000  1
  C  C53  1  0.00000000  0.40840000  0.59160000  1
  C  C54  1  0.08130000  0.45370000  0.54630000  1
  C  C55  1  0.45370000  0.08130000  0.54630000  1
  C  C56  1  0.08130000  0.91870000  0.54630000  1
  C  C57  1  0.91870000  0.08130000  0.54630000  1
  C  C58  1  0.45370000  0.91870000  0.54630000  1
  C  C59  1  0.91870000  0.45370000  0.54630000  1
  C  C60  1  0.08130000  0.54630000  0.45370000  1
  C  C61  1  0.54630000  0.08130000  0.45370000  1
  C  C62  1  0.08130000  0.91870000  0.45370000  1
  C  C63  1  0.91870000  0.08130000  0.45370000  1
  C  C64  1  0.54630000  0.91870000  0.45370000  1
  C  C65  1  0.91870000  0.54630000  0.45370000  1
  C  C66  1  0.59160000  0.00000000  0.40840000  1
  C  C67  1  0.00000000  0.59160000  0.40840000  1
  C  C68  1  1.00000000  0.00000000  0.40840000  1
  C  C69  1  0.69020000  0.00000000  0.30980000  1
  C  C70  1  0.00000000  0.69020000  0.30980000  1
  C  C71  1  0.00000000  0.00000000  0.30980000  1
  C  C72  1  0.45370000  0.54630000  0.08130000  1
  C  C73  1  0.54630000  0.45370000  0.08130000  1
  C  C74  1  0.45370000  0.91870000  0.08130000  1
  C  C75  1  0.91870000  0.45370000  0.08130000  1
  C  C76  1  0.54630000  0.91870000  0.08130000  1
  C  C77  1  0.91870000  0.54630000  0.08130000  1
  O  O78  1  0.18030000  0.93990000  0.93990000  1
  O  O79  1  0.93990000  0.18030000  0.93990000  1
  O  O80  1  0.93990000  0.93990000  0.93990000  1
  O  O81  1  0.07470000  0.27290000  0.92530000  1
  O  O82  1  0.27290000  0.07470000  0.92530000  1
  O  O83  1  0.07470000  0.72710000  0.92530000  1
  O  O84  1  0.72710000  0.07470000  0.92530000  1
  O  O85  1  0.27290000  0.72710000  0.92530000  1
  O  O86  1  0.72710000  0.27290000  0.92530000  1
  O  O87  1  0.06010000  0.06010000  0.81970000  1
  O  O88  1  0.07470000  0.27290000  0.72710000  1
  O  O89  1  0.27290000  0.07470000  0.72710000  1
  O  O90  1  0.07470000  0.92530000  0.72710000  1
  O  O91  1  0.92530000  0.07470000  0.72710000  1
  O  O92  1  0.27290000  0.92530000  0.72710000  1
  O  O93  1  0.92530000  0.27290000  0.72710000  1
  O  O94  1  0.07470000  0.72710000  0.27290000  1
  O  O95  1  0.72710000  0.07470000  0.27290000  1
  O  O96  1  0.07470000  0.92530000  0.27290000  1
  O  O97  1  0.92530000  0.07470000  0.27290000  1
  O  O98  1  0.72710000  0.92530000  0.27290000  1
  O  O99  1  0.92530000  0.72710000  0.27290000  1
  O  O100  1  0.93990000  0.93990000  0.18030000  1
  O  O101  1  0.27290000  0.72710000  0.07470000  1
  O  O102  1  0.72710000  0.27290000  0.07470000  1
  O  O103  1  0.27290000  0.92530000  0.07470000  1
  O  O104  1  0.92530000  0.27290000  0.07470000  1
  O  O105  1  0.72710000  0.92530000  0.07470000  1
  O  O106  1  0.92530000  0.72710000  0.07470000  1
  O  O107  1  0.06010000  0.06010000  0.06010000  1
  O  O108  1  0.06010000  0.81970000  0.06010000  1
  O  O109  1  0.81970000  0.06010000  0.06010000  1
