# generated using pymatgen
data_NaH8C12(NO3)2
_symmetry_space_group_name_H-M   'P 1'
_cell_length_a   9.58200000
_cell_length_b   10.46700000
_cell_length_c   17.92000000
_cell_angle_alpha   74.75300000
_cell_angle_beta   77.64300000
_cell_angle_gamma   73.09300000
_symmetry_Int_Tables_number   1
_chemical_formula_structural   NaH8C12(NO3)2
_chemical_formula_sum   'Na3 H24 C36 N6 O18'
_cell_volume   1640.55798262
_cell_formula_units_Z   3
loop_
 _symmetry_equiv_pos_site_id
 _symmetry_equiv_pos_as_xyz
  1  'x, y, z'
loop_
 _atom_site_type_symbol
 _atom_site_label
 _atom_site_symmetry_multiplicity
 _atom_site_fract_x
 _atom_site_fract_y
 _atom_site_fract_z
 _atom_site_occupancy
  Na  Na0  1  0.00000000  0.00000000  0.00000000  1
  Na  Na1  1  0.50000000  0.00000000  0.50000000  1
  Na  Na2  1  0.50000000  0.50000000  0.00000000  1
  H  H3  1  0.00950000  0.16340000  0.30690000  1
  H  H4  1  0.09590000  0.14120000  0.17930000  1
  H  H5  1  0.17350000  0.43370000  0.31680000  1
  H  H6  1  0.20180000  0.19100000  0.02070000  1
  H  H7  1  0.21050000  0.26150000  0.42520000  1
  H  H8  1  0.30440000  0.84970000  0.84840000  1
  H  H9  1  0.37060000  0.16700000  0.17980000  1
  H  H10  1  0.37260000  0.11510000  0.81090000  1
  H  H11  1  0.38660000  0.84590000  0.71890000  1
  H  H12  1  0.39780000  0.99120000  0.28890000  1
  H  H13  1  0.40130000  0.86630000  0.17350000  1
  H  H14  1  0.42350000  0.21300000  0.03780000  1
  H  H15  1  0.57650000  0.78700000  0.96220000  1
  H  H16  1  0.59870000  0.13370000  0.82650000  1
  H  H17  1  0.60220000  0.00880000  0.71110000  1
  H  H18  1  0.61340000  0.15410000  0.28110000  1
  H  H19  1  0.62740000  0.88490000  0.18910000  1
  H  H20  1  0.62940000  0.83300000  0.82020000  1
  H  H21  1  0.69560000  0.15030000  0.15160000  1
  H  H22  1  0.78950000  0.73850000  0.57480000  1
  H  H23  1  0.79820000  0.80900000  0.97930000  1
  H  H24  1  0.82650000  0.56630000  0.68320000  1
  H  H25  1  0.90410000  0.85880000  0.82070000  1
  H  H26  1  0.99050000  0.83660000  0.69310000  1
  C  C27  1  0.00340000  0.85150000  0.80080000  1
  C  C28  1  0.05480000  0.84250000  0.72350000  1
  C  C29  1  0.19580000  0.84200000  0.69120000  1
  C  C30  1  0.22060000  0.34500000  0.31090000  1
  C  C31  1  0.23940000  0.24230000  0.37550000  1
  C  C32  1  0.23960000  0.84850000  0.81680000  1
  C  C33  1  0.24440000  0.43810000  0.16720000  1
  C  C34  1  0.25440000  0.82290000  0.60760000  1
  C  C35  1  0.27050000  0.32000000  0.23610000  1
  C  C36  1  0.28240000  0.18000000  0.98130000  1
  C  C37  1  0.28890000  0.84550000  0.73930000  1
  C  C38  1  0.32410000  0.79790000  0.05350000  1
  C  C39  1  0.33660000  0.18600000  0.22930000  1
  C  C40  1  0.35300000  0.08090000  0.29380000  1
  C  C41  1  0.38360000  0.13450000  0.85680000  1
  C  C42  1  0.41510000  0.19330000  0.99160000  1
  C  C43  1  0.46370000  0.82240000  0.06630000  1
  C  C44  1  0.48120000  0.85350000  0.13390000  1
  C  C45  1  0.51880000  0.14650000  0.86610000  1
  C  C46  1  0.53630000  0.17760000  0.93370000  1
  C  C47  1  0.58490000  0.80670000  0.00840000  1
  C  C48  1  0.61640000  0.86550000  0.14320000  1
  C  C49  1  0.64700000  0.91910000  0.70620000  1
  C  C50  1  0.66340000  0.81400000  0.77070000  1
  C  C51  1  0.67590000  0.20210000  0.94650000  1
  C  C52  1  0.71110000  0.15450000  0.26070000  1
  C  C53  1  0.71760000  0.82000000  0.01870000  1
  C  C54  1  0.72950000  0.68000000  0.76390000  1
  C  C55  1  0.74560000  0.17710000  0.39240000  1
  C  C56  1  0.75560000  0.56190000  0.83280000  1
  C  C57  1  0.76040000  0.15150000  0.18320000  1
  C  C58  1  0.76060000  0.75770000  0.62450000  1
  C  C59  1  0.77940000  0.65500000  0.68910000  1
  C  C60  1  0.80420000  0.15800000  0.30880000  1
  C  C61  1  0.94520000  0.15750000  0.27650000  1
  C  C62  1  0.99660000  0.14850000  0.19920000  1
  N  N63  1  0.09890000  0.84970000  0.84720000  1
  N  N64  1  0.26770000  0.15100000  0.91470000  1
  N  N65  1  0.29960000  0.11370000  0.36710000  1
  N  N66  1  0.70040000  0.88630000  0.63290000  1
  N  N67  1  0.73230000  0.84900000  0.08530000  1
  N  N68  1  0.90110000  0.15030000  0.15280000  1
  O  O69  1  0.05330000  0.83990000  0.92270000  1
  O  O70  1  0.13850000  0.14110000  0.90510000  1
  O  O71  1  0.16670000  0.80880000  0.57030000  1
  O  O72  1  0.16800000  0.55390000  0.17890000  1
  O  O73  1  0.20010000  0.87490000  0.07970000  1
  O  O74  1  0.29900000  0.41120000  0.09980000  1
  O  O75  1  0.31800000  0.00880000  0.42890000  1
  O  O76  1  0.33710000  0.70830000  0.01860000  1
  O  O77  1  0.38580000  0.82760000  0.58160000  1
  O  O78  1  0.61420000  0.17240000  0.41840000  1
  O  O79  1  0.66290000  0.29170000  0.98140000  1
  O  O80  1  0.68200000  0.99120000  0.57110000  1
  O  O81  1  0.70100000  0.58880000  0.90020000  1
  O  O82  1  0.79990000  0.12510000  0.92030000  1
  O  O83  1  0.83200000  0.44610000  0.82110000  1
  O  O84  1  0.83330000  0.19120000  0.42970000  1
  O  O85  1  0.86150000  0.85890000  0.09490000  1
  O  O86  1  0.94670000  0.16010000  0.07730000  1
