# generated using pymatgen
data_NiH7C11O5
_symmetry_space_group_name_H-M   'P 1'
_cell_length_a   10.28200000
_cell_length_b   11.26100000
_cell_length_c   12.17100000
_cell_angle_alpha   92.57500000
_cell_angle_beta   109.11400000
_cell_angle_gamma   109.75200000
_symmetry_Int_Tables_number   1
_chemical_formula_structural   NiH7C11O5
_chemical_formula_sum   'Ni4 H28 C44 O20'
_cell_volume   1233.86261126
_cell_formula_units_Z   4
loop_
 _symmetry_equiv_pos_site_id
 _symmetry_equiv_pos_as_xyz
  1  'x, y, z'
loop_
 _atom_site_type_symbol
 _atom_site_label
 _atom_site_symmetry_multiplicity
 _atom_site_fract_x
 _atom_site_fract_y
 _atom_site_fract_z
 _atom_site_occupancy
  Ni  Ni0  1  0.00000000  0.50000000  0.00000000  1
  Ni  Ni1  1  0.20819000  0.47363000  0.29710000  1
  Ni  Ni2  1  0.50000000  0.50000000  0.50000000  1
  Ni  Ni3  1  0.79181000  0.52637000  0.70290000  1
  H  H4  1  0.04350000  0.05220000  0.32060000  1
  H  H5  1  0.07640000  0.35120000  0.06350000  1
  H  H6  1  0.08600000  0.11730000  0.58250000  1
  H  H7  1  0.14260000  0.30550000  0.89270000  1
  H  H8  1  0.14650000  0.81010000  0.51170000  1
  H  H9  1  0.21960000  0.43810000  0.11450000  1
  H  H10  1  0.26210000  0.47220000  0.52330000  1
  H  H11  1  0.27640000  0.58070000  0.47350000  1
  H  H12  1  0.29320000  0.62490000  0.76940000  1
  H  H13  1  0.31630000  0.25430000  0.59620000  1
  H  H14  1  0.37350000  0.43720000  0.90840000  1
  H  H15  1  0.38730000  0.93860000  0.54190000  1
  H  H16  1  0.38780000  0.89730000  0.27840000  1
  H  H17  1  0.46450000  0.25050000  0.20640000  1
  H  H18  1  0.53550000  0.74950000  0.79360000  1
  H  H19  1  0.61220000  0.10270000  0.72160000  1
  H  H20  1  0.61270000  0.06140000  0.45810000  1
  H  H21  1  0.62650000  0.56280000  0.09160000  1
  H  H22  1  0.68370000  0.74570000  0.40380000  1
  H  H23  1  0.70680000  0.37510000  0.23060000  1
  H  H24  1  0.72360000  0.41930000  0.52650000  1
  H  H25  1  0.73790000  0.52780000  0.47670000  1
  H  H26  1  0.78040000  0.56190000  0.88550000  1
  H  H27  1  0.85350000  0.18990000  0.48830000  1
  H  H28  1  0.85740000  0.69450000  0.10730000  1
  H  H29  1  0.91400000  0.88270000  0.41750000  1
  H  H30  1  0.92360000  0.64880000  0.93650000  1
  H  H31  1  0.95650000  0.94780000  0.67940000  1
  C  C32  1  0.03710000  0.63030000  0.62200000  1
  C  C33  1  0.06820000  0.88800000  0.27870000  1
  C  C34  1  0.08400000  0.19800000  0.73300000  1
  C  C35  1  0.11210000  0.02030000  0.31040000  1
  C  C36  1  0.14210000  0.18330000  0.64720000  1
  C  C37  1  0.14980000  0.70540000  0.22480000  1
  C  C38  1  0.17610000  0.84340000  0.26410000  1
  C  C39  1  0.17670000  0.29520000  0.83230000  1
  C  C40  1  0.19420000  0.70760000  0.63920000  1
  C  C41  1  0.22440000  0.79910000  0.57020000  1
  C  C42  1  0.25380000  0.10660000  0.32760000  1
  C  C43  1  0.28130000  0.26480000  0.65600000  1
  C  C44  1  0.28830000  0.24760000  0.35750000  1
  C  C45  1  0.31180000  0.68760000  0.72340000  1
  C  C46  1  0.31460000  0.37420000  0.84180000  1
  C  C47  1  0.31750000  0.92910000  0.28480000  1
  C  C48  1  0.36000000  0.06040000  0.31470000  1
  C  C49  1  0.36880000  0.87460000  0.58680000  1
  C  C50  1  0.36890000  0.36140000  0.75180000  1
  C  C51  1  0.45730000  0.76270000  0.73760000  1
  C  C52  1  0.47780000  0.55120000  0.23120000  1
  C  C53  1  0.48730000  0.85600000  0.67030000  1
  C  C54  1  0.51270000  0.14400000  0.32970000  1
  C  C55  1  0.52220000  0.44880000  0.76880000  1
  C  C56  1  0.54270000  0.23730000  0.26240000  1
  C  C57  1  0.63110000  0.63860000  0.24820000  1
  C  C58  1  0.63120000  0.12540000  0.41320000  1
  C  C59  1  0.64000000  0.93960000  0.68530000  1
  C  C60  1  0.68250000  0.07090000  0.71520000  1
  C  C61  1  0.68540000  0.62580000  0.15820000  1
  C  C62  1  0.68820000  0.31240000  0.27660000  1
  C  C63  1  0.71170000  0.75240000  0.64250000  1
  C  C64  1  0.71870000  0.73520000  0.34400000  1
  C  C65  1  0.74620000  0.89340000  0.67240000  1
  C  C66  1  0.77560000  0.20090000  0.42980000  1
  C  C67  1  0.80580000  0.29240000  0.36080000  1
  C  C68  1  0.82330000  0.70480000  0.16770000  1
  C  C69  1  0.82390000  0.15660000  0.73590000  1
  C  C70  1  0.85020000  0.29460000  0.77520000  1
  C  C71  1  0.85790000  0.81670000  0.35280000  1
  C  C72  1  0.88790000  0.97970000  0.68960000  1
  C  C73  1  0.91600000  0.80200000  0.26700000  1
  C  C74  1  0.93180000  0.11200000  0.72130000  1
  C  C75  1  0.96290000  0.36970000  0.37800000  1
  O  O76  1  0.00680000  0.58550000  0.70670000  1
  O  O77  1  0.05920000  0.38250000  0.48010000  1
  O  O78  1  0.07350000  0.66010000  0.11840000  1
  O  O79  1  0.13220000  0.41870000  0.11450000  1
  O  O80  1  0.19160000  0.28880000  0.30190000  1
  O  O81  1  0.21520000  0.65320000  0.29970000  1
  O  O82  1  0.30300000  0.51680000  0.48070000  1
  O  O83  1  0.39380000  0.49810000  0.12800000  1
  O  O84  1  0.41040000  0.31240000  0.43780000  1
  O  O85  1  0.43450000  0.53770000  0.31790000  1
  O  O86  1  0.56550000  0.46230000  0.68210000  1
  O  O87  1  0.58960000  0.68760000  0.56220000  1
  O  O88  1  0.60620000  0.50190000  0.87200000  1
  O  O89  1  0.69700000  0.48320000  0.51930000  1
  O  O90  1  0.78480000  0.34680000  0.70030000  1
  O  O91  1  0.80840000  0.71120000  0.69810000  1
  O  O92  1  0.86780000  0.58130000  0.88550000  1
  O  O93  1  0.92650000  0.33990000  0.88160000  1
  O  O94  1  0.94080000  0.61750000  0.51990000  1
  O  O95  1  0.99320000  0.41450000  0.29330000  1
