# generated using pymatgen
data_Li7H18C24O17
_symmetry_space_group_name_H-M   'P 1'
_cell_length_a   9.47780000
_cell_length_b   9.95380000
_cell_length_c   17.69200000
_cell_angle_alpha   90.00000000
_cell_angle_beta   90.00000000
_cell_angle_gamma   104.41900000
_symmetry_Int_Tables_number   1
_chemical_formula_structural   Li7H18C24O17
_chemical_formula_sum   'Li14 H36 C48 O34'
_cell_volume   1616.49100632
_cell_formula_units_Z   2
loop_
 _symmetry_equiv_pos_site_id
 _symmetry_equiv_pos_as_xyz
  1  'x, y, z'
loop_
 _atom_site_type_symbol
 _atom_site_label
 _atom_site_symmetry_multiplicity
 _atom_site_fract_x
 _atom_site_fract_y
 _atom_site_fract_z
 _atom_site_occupancy
  Li  Li0  1  0.02710000  0.44640000  0.09270000  1
  Li  Li1  1  0.02720000  0.95220000  0.01980000  1
  Li  Li2  1  0.12920000  0.19300000  0.36190000  1
  Li  Li3  1  0.13320000  0.82930000  0.51680000  1
  Li  Li4  1  0.13470000  0.70380000  0.75750000  1
  Li  Li5  1  0.13780000  0.34420000  0.54070000  1
  Li  Li6  1  0.21970000  0.05090000  0.24090000  1
  Li  Li7  1  0.78030000  0.94910000  0.74090000  1
  Li  Li8  1  0.86220000  0.65580000  0.04070000  1
  Li  Li9  1  0.86530000  0.29620000  0.25750000  1
  Li  Li10  1  0.86680000  0.17070000  0.01680000  1
  Li  Li11  1  0.87080000  0.80700000  0.86190000  1
  Li  Li12  1  0.97280000  0.04780000  0.51980000  1
  Li  Li13  1  0.97290000  0.55360000  0.59270000  1
  H  H14  1  0.17040000  0.44440000  0.41110000  1
  H  H15  1  0.25380000  0.34720000  0.41960000  1
  H  H16  1  0.29840000  0.49600000  0.16130000  1
  H  H17  1  0.30510000  0.00540000  0.95430000  1
  H  H18  1  0.31620000  0.92050000  0.06540000  1
  H  H19  1  0.32470000  0.41780000  0.05050000  1
  H  H20  1  0.42700000  0.52880000  0.54850000  1
  H  H21  1  0.43170000  0.01630000  0.56560000  1
  H  H22  1  0.43300000  0.92660000  0.85200000  1
  H  H23  1  0.43540000  0.42880000  0.26250000  1
  H  H24  1  0.44560000  0.69330000  0.86020000  1
  H  H25  1  0.44680000  0.74510000  0.08540000  1
  H  H26  1  0.44960000  0.23340000  0.03280000  1
  H  H27  1  0.45010000  0.09310000  0.14020000  1
  H  H28  1  0.45100000  0.59920000  0.98100000  1
  H  H29  1  0.45350000  0.19700000  0.25870000  1
  H  H30  1  0.45650000  0.92560000  0.45750000  1
  H  H31  1  0.45920000  0.43020000  0.65250000  1
  H  H32  1  0.54080000  0.56980000  0.15250000  1
  H  H33  1  0.54350000  0.07440000  0.95750000  1
  H  H34  1  0.54650000  0.80300000  0.75870000  1
  H  H35  1  0.54900000  0.40080000  0.48100000  1
  H  H36  1  0.54990000  0.90690000  0.64020000  1
  H  H37  1  0.55040000  0.76660000  0.53280000  1
  H  H38  1  0.55320000  0.25490000  0.58540000  1
  H  H39  1  0.55440000  0.30670000  0.36020000  1
  H  H40  1  0.56460000  0.57120000  0.76250000  1
  H  H41  1  0.56700000  0.07340000  0.35200000  1
  H  H42  1  0.56830000  0.98370000  0.06560000  1
  H  H43  1  0.57300000  0.47120000  0.04850000  1
  H  H44  1  0.67530000  0.58220000  0.55050000  1
  H  H45  1  0.68380000  0.07950000  0.56540000  1
  H  H46  1  0.69490000  0.99460000  0.45430000  1
  H  H47  1  0.70160000  0.50400000  0.66130000  1
  H  H48  1  0.74620000  0.65280000  0.91960000  1
  H  H49  1  0.82960000  0.55560000  0.91110000  1
  C  C50  1  0.15730000  0.32890000  0.20980000  1
  C  C51  1  0.15770000  0.84460000  0.90490000  1
  C  C52  1  0.16720000  0.73440000  0.05260000  1
  C  C53  1  0.17070000  0.23480000  0.05970000  1
  C  C54  1  0.27480000  0.63120000  0.57882000  1
  C  C55  1  0.28000000  0.12280000  0.54100000  1
  C  C56  1  0.29130000  0.98310000  0.40340000  1
  C  C57  1  0.29660000  0.48160000  0.71390000  1
  C  C58  1  0.29720000  0.39780000  0.16708000  1
  C  C59  1  0.29820000  0.90610000  0.94790000  1
  C  C60  1  0.30530000  0.84350000  0.02960000  1
  C  C61  1  0.30890000  0.33890000  0.08540000  1
  C  C62  1  0.42010000  0.59360000  0.58920000  1
  C  C63  1  0.42320000  0.08430000  0.52690000  1
  C  C64  1  0.43310000  0.01450000  0.44770000  1
  C  C65  1  0.43390000  0.51720000  0.66500000  1
  C  C66  1  0.43560000  0.89320000  0.90390000  1
  C  C67  1  0.43750000  0.39190000  0.21130000  1
  C  C68  1  0.44340000  0.74380000  0.90430000  1
  C  C69  1  0.44360000  0.79000000  0.03640000  1
  C  C70  1  0.44630000  0.28120000  0.08090000  1
  C  C71  1  0.44690000  0.69050000  0.97290000  1
  C  C72  1  0.44790000  0.24380000  0.21370000  1
  C  C73  1  0.44850000  0.18550000  0.14640000  1
  C  C74  1  0.55150000  0.81450000  0.64640000  1
  C  C75  1  0.55210000  0.75620000  0.71370000  1
  C  C76  1  0.55310000  0.30950000  0.47290000  1
  C  C77  1  0.55370000  0.71880000  0.58090000  1
  C  C78  1  0.55640000  0.21000000  0.53640000  1
  C  C79  1  0.55660000  0.25620000  0.40430000  1
  C  C80  1  0.56250000  0.60810000  0.71130000  1
  C  C81  1  0.56440000  0.10680000  0.40390000  1
  C  C82  1  0.56610000  0.48280000  0.16500000  1
  C  C83  1  0.56690000  0.98550000  0.94770000  1
  C  C84  1  0.57680000  0.91570000  0.02690000  1
  C  C85  1  0.57990000  0.40640000  0.08920000  1
  C  C86  1  0.69110000  0.66110000  0.58540000  1
  C  C87  1  0.69470000  0.15650000  0.52960000  1
  C  C88  1  0.70180000  0.09390000  0.44790000  1
  C  C89  1  0.70280000  0.60220000  0.66708000  1
  C  C90  1  0.70340000  0.51840000  0.21390000  1
  C  C91  1  0.70870000  0.01690000  0.90340000  1
  C  C92  1  0.72000000  0.87720000  0.04100000  1
  C  C93  1  0.72520000  0.36880000  0.07882000  1
  C  C94  1  0.82930000  0.76520000  0.55970000  1
  C  C95  1  0.83280000  0.26560000  0.55260000  1
  C  C96  1  0.84230000  0.15540000  0.40490000  1
  C  C97  1  0.84270000  0.67110000  0.70980000  1
  O  O98  1  0.04950000  0.38130000  0.19970000  1
  O  O99  1  0.05270000  0.77910000  0.06152000  1
  O  O100  1  0.05740000  0.90910000  0.91026000  1
  O  O101  1  0.06500000  0.28500000  0.03750000  1
  O  O102  1  0.14380000  0.73550000  0.86714000  1
  O  O103  1  0.15390000  0.22870000  0.25277000  1
  O  O104  1  0.16230000  0.36300000  0.42150000  1
  O  O105  1  0.16350000  0.52990000  0.57376000  1
  O  O106  1  0.16380000  0.02460000  0.53830000  1
  O  O107  1  0.16490000  0.10890000  0.05973000  1
  O  O108  1  0.17030000  0.61180000  0.06264000  1
  O  O109  1  0.20670000  0.86080000  0.41110000  1
  O  O110  1  0.24460000  0.57520000  0.73934000  1
  O  O111  1  0.24630000  0.35540000  0.73060000  1
  O  O112  1  0.26070000  0.07340000  0.36166000  1
  O  O113  1  0.27050000  0.75540000  0.57367000  1
  O  O114  1  0.28050000  0.24550000  0.55632000  1
  O  O115  1  0.71950000  0.75450000  0.05632000  1
  O  O116  1  0.72950000  0.24460000  0.07367000  1
  O  O117  1  0.73930000  0.92660000  0.86166000  1
  O  O118  1  0.75370000  0.64460000  0.23060000  1
  O  O119  1  0.75540000  0.42480000  0.23934000  1
  O  O120  1  0.79330000  0.13920000  0.91110000  1
  O  O121  1  0.82970000  0.38820000  0.56264000  1
  O  O122  1  0.83510000  0.89110000  0.55973000  1
  O  O123  1  0.83620000  0.97540000  0.03830000  1
  O  O124  1  0.83650000  0.47010000  0.07376000  1
  O  O125  1  0.83770000  0.63700000  0.92150000  1
  O  O126  1  0.84610000  0.77130000  0.75277000  1
  O  O127  1  0.85620000  0.26450000  0.36714000  1
  O  O128  1  0.93500000  0.71500000  0.53750000  1
  O  O129  1  0.94260000  0.09090000  0.41026000  1
  O  O130  1  0.94730000  0.22090000  0.56152000  1
  O  O131  1  0.95050000  0.61870000  0.69970000  1
