# generated using pymatgen
data_TbH5C7SO6
_symmetry_space_group_name_H-M   'P 1'
_cell_length_a   8.46720000
_cell_length_b   17.12050000
_cell_length_c   17.12050000
_cell_angle_alpha   90.00000000
_cell_angle_beta   90.00000000
_cell_angle_gamma   90.00000000
_symmetry_Int_Tables_number   1
_chemical_formula_structural   TbH5C7SO6
_chemical_formula_sum   'Tb8 H40 C56 S8 O48'
_cell_volume   2481.83386426
_cell_formula_units_Z   8
loop_
 _symmetry_equiv_pos_site_id
 _symmetry_equiv_pos_as_xyz
  1  'x, y, z'
loop_
 _atom_site_type_symbol
 _atom_site_label
 _atom_site_symmetry_multiplicity
 _atom_site_fract_x
 _atom_site_fract_y
 _atom_site_fract_z
 _atom_site_occupancy
  Tb  Tb0  1  0.14980000  0.10982000  0.03733000  1
  Tb  Tb1  1  0.14980000  0.89018000  0.96267000  1
  Tb  Tb2  1  0.35020000  0.39018000  0.53733000  1
  Tb  Tb3  1  0.35020000  0.60982000  0.46267000  1
  Tb  Tb4  1  0.64980000  0.46267000  0.39018000  1
  Tb  Tb5  1  0.64980000  0.53733000  0.60982000  1
  Tb  Tb6  1  0.85020000  0.03733000  0.89018000  1
  Tb  Tb7  1  0.85020000  0.96267000  0.10982000  1
  H  H8  1  0.05310000  0.25130000  0.26400000  1
  H  H9  1  0.05310000  0.74870000  0.73600000  1
  H  H10  1  0.14460000  0.47650000  0.75660000  1
  H  H11  1  0.14460000  0.52350000  0.24340000  1
  H  H12  1  0.17210000  0.33510000  0.94140000  1
  H  H13  1  0.17210000  0.66490000  0.05860000  1
  H  H14  1  0.22000000  0.03400000  0.90400000  1
  H  H15  1  0.22000000  0.96600000  0.09600000  1
  H  H16  1  0.23720000  0.45120000  0.87980000  1
  H  H17  1  0.23720000  0.54880000  0.12020000  1
  H  H18  1  0.26280000  0.04880000  0.37980000  1
  H  H19  1  0.26280000  0.95120000  0.62020000  1
  H  H20  1  0.28000000  0.46600000  0.40400000  1
  H  H21  1  0.28000000  0.53400000  0.59600000  1
  H  H22  1  0.32790000  0.16490000  0.44140000  1
  H  H23  1  0.32790000  0.83510000  0.55860000  1
  H  H24  1  0.35540000  0.02350000  0.25660000  1
  H  H25  1  0.35540000  0.97650000  0.74340000  1
  H  H26  1  0.44690000  0.24870000  0.76400000  1
  H  H27  1  0.44690000  0.75130000  0.23600000  1
  H  H28  1  0.55310000  0.23600000  0.24870000  1
  H  H29  1  0.55310000  0.76400000  0.75130000  1
  H  H30  1  0.64460000  0.25660000  0.97650000  1
  H  H31  1  0.64460000  0.74340000  0.02350000  1
  H  H32  1  0.67210000  0.44140000  0.83510000  1
  H  H33  1  0.67210000  0.55860000  0.16490000  1
  H  H34  1  0.72000000  0.40400000  0.53400000  1
  H  H35  1  0.72000000  0.59600000  0.46600000  1
  H  H36  1  0.73720000  0.37980000  0.95120000  1
  H  H37  1  0.73720000  0.62020000  0.04880000  1
  H  H38  1  0.76280000  0.12020000  0.45120000  1
  H  H39  1  0.76280000  0.87980000  0.54880000  1
  H  H40  1  0.78000000  0.09600000  0.03400000  1
  H  H41  1  0.78000000  0.90400000  0.96600000  1
  H  H42  1  0.82790000  0.05860000  0.33510000  1
  H  H43  1  0.82790000  0.94140000  0.66490000  1
  H  H44  1  0.85540000  0.24340000  0.47650000  1
  H  H45  1  0.85540000  0.75660000  0.52350000  1
  H  H46  1  0.94690000  0.26400000  0.74870000  1
  H  H47  1  0.94690000  0.73600000  0.25130000  1
  C  C48  1  0.00210000  0.30200000  0.77630000  1
  C  C49  1  0.00210000  0.69800000  0.22370000  1
  C  C50  1  0.00810000  0.21360000  0.89210000  1
  C  C51  1  0.00810000  0.78640000  0.10790000  1
  C  C52  1  0.03770000  0.37300000  0.74120000  1
  C  C53  1  0.03770000  0.62700000  0.25880000  1
  C  C54  1  0.04930000  0.28820000  0.85260000  1
  C  C55  1  0.04930000  0.71180000  0.14740000  1
  C  C56  1  0.12300000  0.42890000  0.78040000  1
  C  C57  1  0.12300000  0.57110000  0.21960000  1
  C  C58  1  0.13760000  0.34430000  0.89060000  1
  C  C59  1  0.13760000  0.65570000  0.10940000  1
  C  C60  1  0.17570000  0.41430000  0.85400000  1
  C  C61  1  0.17570000  0.58570000  0.14600000  1
  C  C62  1  0.32430000  0.08570000  0.35400000  1
  C  C63  1  0.32430000  0.91430000  0.64600000  1
  C  C64  1  0.36240000  0.15570000  0.39060000  1
  C  C65  1  0.36240000  0.84430000  0.60940000  1
  C  C66  1  0.37700000  0.07110000  0.28040000  1
  C  C67  1  0.37700000  0.92890000  0.71960000  1
  C  C68  1  0.45070000  0.21180000  0.35260000  1
  C  C69  1  0.45070000  0.78820000  0.64740000  1
  C  C70  1  0.46230000  0.12700000  0.24120000  1
  C  C71  1  0.46230000  0.87300000  0.75880000  1
  C  C72  1  0.49190000  0.28640000  0.39210000  1
  C  C73  1  0.49190000  0.71360000  0.60790000  1
  C  C74  1  0.49790000  0.19800000  0.27630000  1
  C  C75  1  0.49790000  0.80200000  0.72370000  1
  C  C76  1  0.50210000  0.27630000  0.80200000  1
  C  C77  1  0.50210000  0.72370000  0.19800000  1
  C  C78  1  0.50810000  0.39210000  0.71360000  1
  C  C79  1  0.50810000  0.60790000  0.28640000  1
  C  C80  1  0.53770000  0.24120000  0.87300000  1
  C  C81  1  0.53770000  0.75880000  0.12700000  1
  C  C82  1  0.54930000  0.35260000  0.78820000  1
  C  C83  1  0.54930000  0.64740000  0.21180000  1
  C  C84  1  0.62300000  0.28040000  0.92890000  1
  C  C85  1  0.62300000  0.71960000  0.07110000  1
  C  C86  1  0.63760000  0.39060000  0.84430000  1
  C  C87  1  0.63760000  0.60940000  0.15570000  1
  C  C88  1  0.67570000  0.35400000  0.91430000  1
  C  C89  1  0.67570000  0.64600000  0.08570000  1
  C  C90  1  0.82430000  0.14600000  0.41430000  1
  C  C91  1  0.82430000  0.85400000  0.58570000  1
  C  C92  1  0.86240000  0.10940000  0.34430000  1
  C  C93  1  0.86240000  0.89060000  0.65570000  1
  C  C94  1  0.87700000  0.21960000  0.42890000  1
  C  C95  1  0.87700000  0.78040000  0.57110000  1
  C  C96  1  0.95070000  0.14740000  0.28820000  1
  C  C97  1  0.95070000  0.85260000  0.71180000  1
  C  C98  1  0.96230000  0.25880000  0.37300000  1
  C  C99  1  0.96230000  0.74120000  0.62700000  1
  C  C100  1  0.99190000  0.10790000  0.21360000  1
  C  C101  1  0.99190000  0.89210000  0.78640000  1
  C  C102  1  0.99790000  0.22370000  0.30200000  1
  C  C103  1  0.99790000  0.77630000  0.69800000  1
  S  S104  1  0.02364000  0.35614000  0.39234000  1
  S  S105  1  0.02364000  0.64386000  0.60766000  1
  S  S106  1  0.47636000  0.14386000  0.89234000  1
  S  S107  1  0.47636000  0.85614000  0.10766000  1
  S  S108  1  0.52364000  0.10766000  0.14386000  1
  S  S109  1  0.52364000  0.89234000  0.85614000  1
  S  S110  1  0.97636000  0.39234000  0.64386000  1
  S  S111  1  0.97636000  0.60766000  0.35614000  1
  O  O112  1  0.03070000  0.21080000  0.96610000  1
  O  O113  1  0.03070000  0.78920000  0.03390000  1
  O  O114  1  0.04380000  0.14820000  0.15870000  1
  O  O115  1  0.04380000  0.85180000  0.84130000  1
  O  O116  1  0.08190000  0.39040000  0.32050000  1
  O  O117  1  0.08190000  0.60960000  0.67950000  1
  O  O118  1  0.11570000  0.42470000  0.60480000  1
  O  O119  1  0.11570000  0.57530000  0.39520000  1
  O  O120  1  0.12080000  0.02590000  0.92750000  1
  O  O121  1  0.12080000  0.97410000  0.07250000  1
  O  O122  1  0.14700000  0.34910000  0.45060000  1
  O  O123  1  0.14700000  0.65090000  0.54940000  1
  O  O124  1  0.35300000  0.15090000  0.95060000  1
  O  O125  1  0.35300000  0.84910000  0.04940000  1
  O  O126  1  0.37920000  0.47410000  0.42750000  1
  O  O127  1  0.37920000  0.52590000  0.57250000  1
  O  O128  1  0.38430000  0.07530000  0.10480000  1
  O  O129  1  0.38430000  0.92470000  0.89520000  1
  O  O130  1  0.41810000  0.10960000  0.82050000  1
  O  O131  1  0.41810000  0.89040000  0.17950000  1
  O  O132  1  0.45620000  0.35180000  0.65870000  1
  O  O133  1  0.45620000  0.64820000  0.34130000  1
  O  O134  1  0.46930000  0.28920000  0.46610000  1
  O  O135  1  0.46930000  0.71080000  0.53390000  1
  O  O136  1  0.53070000  0.46610000  0.71080000  1
  O  O137  1  0.53070000  0.53390000  0.28920000  1
  O  O138  1  0.54380000  0.34130000  0.35180000  1
  O  O139  1  0.54380000  0.65870000  0.64820000  1
  O  O140  1  0.58190000  0.17950000  0.10960000  1
  O  O141  1  0.58190000  0.82050000  0.89040000  1
  O  O142  1  0.61570000  0.10480000  0.92470000  1
  O  O143  1  0.61570000  0.89520000  0.07530000  1
  O  O144  1  0.62080000  0.42750000  0.52590000  1
  O  O145  1  0.62080000  0.57250000  0.47410000  1
  O  O146  1  0.64700000  0.04940000  0.15090000  1
  O  O147  1  0.64700000  0.95060000  0.84910000  1
  O  O148  1  0.85300000  0.45060000  0.65090000  1
  O  O149  1  0.85300000  0.54940000  0.34910000  1
  O  O150  1  0.87920000  0.07250000  0.02590000  1
  O  O151  1  0.87920000  0.92750000  0.97410000  1
  O  O152  1  0.88430000  0.39520000  0.42470000  1
  O  O153  1  0.88430000  0.60480000  0.57530000  1
  O  O154  1  0.91810000  0.32050000  0.60960000  1
  O  O155  1  0.91810000  0.67950000  0.39040000  1
  O  O156  1  0.95620000  0.15870000  0.85180000  1
  O  O157  1  0.95620000  0.84130000  0.14820000  1
  O  O158  1  0.96930000  0.03390000  0.21080000  1
  O  O159  1  0.96930000  0.96610000  0.78920000  1
