# generated using pymatgen
data_CuH10(C11O2)2
_symmetry_space_group_name_H-M   'P 1'
_cell_length_a   32.96740000
_cell_length_b   35.12051680
_cell_length_c   35.12051680
_cell_angle_alpha   94.91401529
_cell_angle_beta   91.81846248
_cell_angle_gamma   91.81846248
_symmetry_Int_Tables_number   1
_chemical_formula_structural   CuH10(C11O2)2
_chemical_formula_sum   'Cu24 H240 C528 O96'
_cell_volume   40469.55478321
_cell_formula_units_Z   24
loop_
 _symmetry_equiv_pos_site_id
 _symmetry_equiv_pos_as_xyz
  1  'x, y, z'
loop_
 _atom_site_type_symbol
 _atom_site_label
 _atom_site_symmetry_multiplicity
 _atom_site_fract_x
 _atom_site_fract_y
 _atom_site_fract_z
 _atom_site_occupancy
  C  C0  1  0.11750000  0.52412000  0.47422000  1
  C  C1  1  0.61750000  0.47422000  0.52412000  1
  C  C2  1  0.56345000  0.50425000  0.48583000  1
  C  C3  1  0.06345000  0.48583000  0.50425000  1
  C  C4  1  0.96000000  0.96937000  0.01595000  1
  C  C5  1  0.46000000  0.01595000  0.96937000  1
  C  C6  1  0.96334000  0.51744000  0.46634000  1
  C  C7  1  0.46334000  0.46634000  0.51744000  1
  C  C8  1  0.50920000  0.53166000  0.45140000  1
  C  C9  1  0.00920000  0.45140000  0.53166000  1
  C  C10  1  0.18137000  0.56965000  0.41151000  1
  C  C11  1  0.68137000  0.41151000  0.56965000  1
  C  C12  1  0.41022000  0.49517000  0.48239000  1
  C  C13  1  0.91022000  0.48239000  0.49517000  1
  C  C14  1  0.14220000  0.52888000  0.44848000  1
  C  C15  1  0.64220000  0.44848000  0.52888000  1
  C  C16  1  0.43550000  0.57076000  0.39296000  1
  C  C17  1  0.93550000  0.39296000  0.57076000  1
  C  C18  1  0.48610000  0.53416000  0.42602000  1
  C  C19  1  0.98610000  0.42602000  0.53416000  1
  C  C20  1  0.93122000  0.97223000  0.98663000  1
  C  C21  1  0.43122000  0.98663000  0.97223000  1
  C  C22  1  0.20703000  0.57414000  0.38144000  1
  C  C23  1  0.70703000  0.38144000  0.57414000  1
  C  C24  1  0.98666000  0.93944000  0.01394000  1
  C  C25  1  0.48666000  0.01394000  0.93944000  1
  C  C26  1  0.53870000  0.95166000  0.00046000  1
  C  C27  1  0.03870000  0.00046000  0.95166000  1
  C  C28  1  0.16726000  0.53333000  0.41871000  1
  C  C29  1  0.66726000  0.41871000  0.53333000  1
  C  C30  1  0.40347000  0.57394000  0.36680000  1
  C  C31  1  0.90347000  0.36680000  0.57394000  1
  C  C32  1  0.45337000  0.53574000  0.39562000  1
  C  C33  1  0.95337000  0.39562000  0.53574000  1
  C  C34  1  0.96380000  0.48896000  0.43634000  1
  C  C35  1  0.46380000  0.43634000  0.48896000  1
  C  C36  1  0.41068000  0.46517000  0.45391000  1
  C  C37  1  0.91068000  0.45391000  0.46517000  1
  C  C38  1  0.53870000  0.92851000  0.97553000  1
  C  C39  1  0.03870000  0.97553000  0.92851000  1
  C  C40  1  0.21858000  0.54231000  0.35859000  1
  C  C41  1  0.71858000  0.35859000  0.54231000  1
  C  C42  1  0.92909000  0.94514000  0.95530000  1
  C  C43  1  0.42909000  0.95530000  0.94514000  1
  C  C44  1  0.17881000  0.50150000  0.39584000  1
  C  C45  1  0.67881000  0.39584000  0.50150000  1
  C  C46  1  0.98453000  0.91236000  0.98260000  1
  C  C47  1  0.48453000  0.98260000  0.91236000  1
  C  C48  1  0.93747000  0.45719000  0.43577000  1
  C  C49  1  0.43747000  0.43577000  0.45719000  1
  C  C50  1  0.38940000  0.54210000  0.34330000  1
  C  C51  1  0.88940000  0.34330000  0.54210000  1
  C  C52  1  0.43930000  0.50390000  0.37212000  1
  C  C53  1  0.93930000  0.37212000  0.50390000  1
  C  C54  1  0.20447000  0.50600000  0.36578000  1
  C  C55  1  0.70447000  0.36578000  0.50600000  1
  C  C56  1  0.40160000  0.92296000  0.94846000  1
  C  C57  1  0.90160000  0.94846000  0.92296000  1
  C  C58  1  0.95575000  0.91521000  0.95329000  1
  C  C59  1  0.45575000  0.95329000  0.91521000  1
  C  C60  1  0.24306000  0.54144000  0.32456000  1
  C  C61  1  0.74306000  0.32456000  0.54144000  1
  C  C62  1  0.01390000  0.88418000  0.98074000  1
  C  C63  1  0.51390000  0.98074000  0.88418000  1
  C  C64  1  0.35530000  0.54378000  0.31648000  1
  C  C65  1  0.85530000  0.31648000  0.54378000  1
  C  C66  1  0.40730000  0.50708000  0.34596000  1
  C  C67  1  0.90730000  0.34596000  0.50708000  1
  C  C68  1  0.37970000  0.89570000  0.95280000  1
  C  C69  1  0.87970000  0.95280000  0.89570000  1
  C  C70  1  0.33976000  0.85539000  0.99049000  1
  C  C71  1  0.83976000  0.99049000  0.85539000  1
  C  C72  1  0.54160000  0.89991000  0.94321000  1
  C  C73  1  0.04160000  0.94321000  0.89991000  1
  C  C74  1  0.03860000  0.86070000  0.97742000  1
  C  C75  1  0.53860000  0.97742000  0.86070000  1
  C  C76  1  0.93910000  0.42755000  0.40425000  1
  C  C77  1  0.43910000  0.40425000  0.42755000  1
  C  C78  1  0.09017000  0.82153000  0.00787000  1
  C  C79  1  0.59017000  0.00787000  0.82153000  1
  C  C80  1  0.57715000  0.89708000  0.92300000  1
  C  C81  1  0.07715000  0.92300000  0.89708000  1
  C  C82  1  0.31361000  0.82413000  0.99389000  1
  C  C83  1  0.81361000  0.99389000  0.82413000  1
  C  C84  1  0.35402000  0.86261000  0.95489000  1
  C  C85  1  0.85402000  0.95489000  0.86261000  1
  C  C86  1  0.50689000  0.87890000  0.92976000  1
  C  C87  1  0.00689000  0.92976000  0.87890000  1
  C  C88  1  0.07048000  0.83150000  0.97476000  1
  C  C89  1  0.57048000  0.97476000  0.83150000  1
  C  C90  1  0.12120000  0.79563000  0.00545000  1
  C  C91  1  0.62120000  0.00545000  0.79563000  1
  C  C92  1  0.18790000  0.59241000  0.18843000  1
  C  C93  1  0.68790000  0.18843000  0.59241000  1
  C  C94  1  0.94010000  0.40206000  0.37854000  1
  C  C95  1  0.44010000  0.37854000  0.40206000  1
  C  C96  1  0.23350000  0.55402000  0.22518000  1
  C  C97  1  0.73350000  0.22518000  0.55402000  1
  C  C98  1  0.33980000  0.55044000  0.21436000  1
  C  C99  1  0.83980000  0.21436000  0.55044000  1
  C  C100  1  0.38340000  0.58996000  0.17276000  1
  C  C101  1  0.88340000  0.17276000  0.58996000  1
  C  C102  1  0.57792000  0.87324000  0.88936000  1
  C  C103  1  0.07792000  0.88936000  0.87324000  1
  C  C104  1  0.30172000  0.80008000  0.96170000  1
  C  C105  1  0.80172000  0.96170000  0.80008000  1
  C  C106  1  0.34213000  0.83857000  0.92271000  1
  C  C107  1  0.84213000  0.92271000  0.83857000  1
  C  C108  1  0.15510000  0.59513000  0.16299000  1
  C  C109  1  0.65510000  0.16299000  0.59513000  1
  C  C110  1  0.19843000  0.55694000  0.19966000  1
  C  C111  1  0.69843000  0.19966000  0.55694000  1
  C  C112  1  0.08181000  0.81558000  0.93924000  1
  C  C113  1  0.58181000  0.93924000  0.81558000  1
  C  C114  1  0.50766000  0.85506000  0.89612000  1
  C  C115  1  0.00766000  0.89612000  0.85506000  1
  C  C116  1  0.13253000  0.77970000  0.96992000  1
  C  C117  1  0.63253000  0.96992000  0.77970000  1
  C  C118  1  0.36660000  0.55512000  0.18154000  1
  C  C119  1  0.86660000  0.18154000  0.55512000  1
  C  C120  1  0.41010000  0.59119000  0.14303000  1
  C  C121  1  0.91010000  0.14303000  0.59119000  1
  C  C122  1  0.31598000  0.80730000  0.92610000  1
  C  C123  1  0.81598000  0.92610000  0.80730000  1
  C  C124  1  0.54320000  0.85223000  0.87591000  1
  C  C125  1  0.04320000  0.87591000  0.85223000  1
  C  C126  1  0.27660000  0.76568000  0.96132000  1
  C  C127  1  0.77660000  0.96132000  0.76568000  1
  C  C128  1  0.11283000  0.78968000  0.93682000  1
  C  C129  1  0.61283000  0.93682000  0.78968000  1
  C  C130  1  0.94150000  0.37286000  0.34802000  1
  C  C131  1  0.44150000  0.34802000  0.37286000  1
  C  C132  1  0.16654000  0.75312000  0.96648000  1
  C  C133  1  0.66654000  0.96648000  0.75312000  1
  C  C134  1  0.13296000  0.56236000  0.14876000  1
  C  C135  1  0.63296000  0.14876000  0.56236000  1
  C  C136  1  0.17630000  0.52418000  0.18544000  1
  C  C137  1  0.67630000  0.18544000  0.52418000  1
  C  C138  1  0.97950000  0.36227000  0.33583000  1
  C  C139  1  0.47950000  0.33583000  0.36227000  1
  C  C140  1  0.14350000  0.52689000  0.15999000  1
  C  C141  1  0.64350000  0.15999000  0.52689000  1
  C  C142  1  0.90674000  0.35340000  0.33216000  1
  C  C143  1  0.40674000  0.33216000  0.35340000  1
  C  C144  1  0.10180000  0.56360000  0.12100000  1
  C  C145  1  0.60180000  0.12100000  0.56360000  1
  C  C146  1  0.37650000  0.52151000  0.16061000  1
  C  C147  1  0.87650000  0.16061000  0.52151000  1
  C  C148  1  0.42006000  0.55757000  0.12209000  1
  C  C149  1  0.92006000  0.12209000  0.55757000  1
  C  C150  1  0.54540000  0.82835000  0.84089000  1
  C  C151  1  0.04540000  0.84089000  0.82835000  1
  C  C152  1  0.07190000  0.56459000  0.09661000  1
  C  C153  1  0.57190000  0.09661000  0.56459000  1
  C  C154  1  0.40320000  0.52273000  0.13089000  1
  C  C155  1  0.90320000  0.13089000  0.52273000  1
  C  C156  1  0.44660000  0.55570000  0.09072000  1
  C  C157  1  0.94660000  0.09072000  0.55570000  1
  C  C158  1  0.98285000  0.33221000  0.30779000  1
  C  C159  1  0.48285000  0.30779000  0.33221000  1
  C  C160  1  0.04201000  0.59337000  0.04261000  1
  C  C161  1  0.54201000  0.04261000  0.59337000  1
  C  C162  1  0.03984000  0.56587000  0.06875000  1
  C  C163  1  0.53984000  0.06875000  0.56587000  1
  C  C164  1  0.28340000  0.66272000  0.97168000  1
  C  C165  1  0.78340000  0.97168000  0.66272000  1
  C  C166  1  0.32890000  0.62476000  0.00916000  1
  C  C167  1  0.82890000  0.00916000  0.62476000  1
  C  C168  1  0.91010000  0.32335000  0.30413000  1
  C  C169  1  0.41010000  0.30413000  0.32335000  1
  C  C170  1  0.47150000  0.55447000  0.06763000  1
  C  C171  1  0.97150000  0.06763000  0.55447000  1
  C  C172  1  0.17710000  0.65072000  0.97070000  1
  C  C173  1  0.67710000  0.97070000  0.65072000  1
  C  C174  1  0.35580000  0.59530000  0.01164000  1
  C  C175  1  0.85580000  0.01164000  0.59530000  1
  C  C176  1  0.31236000  0.63228000  0.97380000  1
  C  C177  1  0.81236000  0.97380000  0.63228000  1
  C  C178  1  0.01343000  0.59266000  0.01258000  1
  C  C179  1  0.51343000  0.01258000  0.59266000  1
  C  C180  1  0.94810000  0.31275000  0.29193000  1
  C  C181  1  0.44810000  0.29193000  0.31275000  1
  C  C182  1  0.06641000  0.68094000  0.92270000  1
  C  C183  1  0.56641000  0.92270000  0.68094000  1
  C  C184  1  0.01770000  0.61904000  0.98366000  1
  C  C185  1  0.51770000  0.98366000  0.61904000  1
  C  C186  1  0.00909000  0.53766000  0.06484000  1
  C  C187  1  0.50909000  0.06484000  0.53766000  1
  C  C188  1  0.02410000  0.64119000  0.95879000  1
  C  C189  1  0.52410000  0.95879000  0.64119000  1
  C  C190  1  0.15034000  0.59708000  0.00210000  1
  C  C191  1  0.65034000  0.00210000  0.59708000  1
  C  C192  1  0.07046000  0.70436000  0.89298000  1
  C  C193  1  0.57046000  0.89298000  0.70436000  1
  C  C194  1  0.02830000  0.66634000  0.93094000  1
  C  C195  1  0.52830000  0.93094000  0.66634000  1
  C  C196  1  0.50241000  0.54986000  0.03882000  1
  C  C197  1  0.00241000  0.03882000  0.54986000  1
  C  C198  1  0.50602000  0.57519000  0.01069000  1
  C  C199  1  0.00602000  0.01069000  0.57519000  1
  C  C200  1  0.15342000  0.61581000  0.96897000  1
  C  C201  1  0.65342000  0.96897000  0.61581000  1
  C  C202  1  0.03642000  0.71317000  0.87151000  1
  C  C203  1  0.53642000  0.87151000  0.71317000  1
  C  C204  1  0.99427000  0.67514000  0.90948000  1
  C  C205  1  0.49427000  0.90948000  0.67514000  1
  C  C206  1  0.99832000  0.69856000  0.87976000  1
  C  C207  1  0.49832000  0.87976000  0.69856000  1
  C  C208  1  0.04100000  0.73722000  0.84044000  1
  C  C209  1  0.54100000  0.84044000  0.73722000  1
  C  C210  1  0.98268000  0.56445000  0.00867000  1
  C  C211  1  0.48268000  0.00867000  0.56445000  1
  C  C212  1  0.98051000  0.53695000  0.03481000  1
  C  C213  1  0.48051000  0.03481000  0.53695000  1
  C  C214  1  0.12566000  0.56425000  0.00213000  1
  C  C215  1  0.62566000  0.00213000  0.56425000  1
  C  C216  1  0.52897000  0.52003000  0.04033000  1
  C  C217  1  0.02897000  0.04033000  0.52003000  1
  C  C218  1  0.53619000  0.57068000  0.98408000  1
  C  C219  1  0.03619000  0.98408000  0.57068000  1
  C  C220  1  0.54670000  0.72858000  0.82406000  1
  C  C221  1  0.04670000  0.82406000  0.72858000  1
  C  C222  1  0.58142000  0.68698000  0.86520000  1
  C  C223  1  0.08142000  0.86520000  0.68698000  1
  C  C224  1  0.36611000  0.57335000  0.97877000  1
  C  C225  1  0.86611000  0.97877000  0.57335000  1
  C  C226  1  0.58016000  0.65982000  0.89174000  1
  C  C227  1  0.08016000  0.89174000  0.65982000  1
  C  C228  1  0.32270000  0.61032000  0.94092000  1
  C  C229  1  0.82270000  0.94092000  0.61032000  1
  C  C230  1  0.53940000  0.59421000  0.95571000  1
  C  C231  1  0.03940000  0.95571000  0.59421000  1
  C  C232  1  0.54210000  0.61755000  0.92883000  1
  C  C233  1  0.04210000  0.92883000  0.61755000  1
  C  C234  1  0.54570000  0.69758000  0.84754000  1
  C  C235  1  0.04570000  0.84754000  0.69758000  1
  C  C236  1  0.54320000  0.64326000  0.90060000  1
  C  C237  1  0.04320000  0.90060000  0.64326000  1
  C  C238  1  0.94810000  0.27986000  0.26296000  1
  C  C239  1  0.44810000  0.26296000  0.27986000  1
  C  C240  1  0.95040000  0.50795000  0.03151000  1
  C  C241  1  0.45040000  0.03151000  0.50795000  1
  C  C242  1  0.13180000  0.60172000  0.93584000  1
  C  C243  1  0.63180000  0.93584000  0.60172000  1
  C  C244  1  0.50870000  0.68102000  0.85640000  1
  C  C245  1  0.00870000  0.85640000  0.68102000  1
  C  C246  1  0.50745000  0.65386000  0.88294000  1
  C  C247  1  0.00745000  0.88294000  0.65386000  1
  C  C248  1  0.55914000  0.51551000  0.01371000  1
  C  C249  1  0.05914000  0.01371000  0.51551000  1
  C  C250  1  0.56275000  0.54084000  0.98558000  1
  C  C251  1  0.06275000  0.98558000  0.54084000  1
  C  C252  1  0.34950000  0.58086000  0.94340000  1
  C  C253  1  0.84950000  0.94340000  0.58086000  1
  C  C254  1  0.39270000  0.54168000  0.98134000  1
  C  C255  1  0.89270000  0.98134000  0.54168000  1
  C  C256  1  0.10404000  0.55016000  0.96900000  1
  C  C257  1  0.60404000  0.96900000  0.55016000  1
  C  C258  1  0.92520000  0.48327000  0.03093000  1
  C  C259  1  0.42520000  0.03093000  0.48327000  1
  C  C260  1  0.10711000  0.56889000  0.93587000  1
  C  C261  1  0.60711000  0.93587000  0.56889000  1
  C  C262  1  0.41560000  0.51604000  0.98420000  1
  C  C263  1  0.91560000  0.98420000  0.51604000  1
  C  C264  1  0.58440000  0.48396000  0.01580000  1
  C  C265  1  0.08440000  0.01580000  0.48396000  1
  C  C266  1  0.89289000  0.43111000  0.06413000  1
  C  C267  1  0.39289000  0.06413000  0.43111000  1
  C  C268  1  0.07480000  0.51673000  0.96907000  1
  C  C269  1  0.57480000  0.96907000  0.51673000  1
  C  C270  1  0.89596000  0.44984000  0.03100000  1
  C  C271  1  0.39596000  0.03100000  0.44984000  1
  C  C272  1  0.60730000  0.45832000  0.01866000  1
  C  C273  1  0.10730000  0.01866000  0.45832000  1
  C  C274  1  0.65050000  0.41914000  0.05660000  1
  C  C275  1  0.15050000  0.05660000  0.41914000  1
  C  C276  1  0.43725000  0.45916000  0.01442000  1
  C  C277  1  0.93725000  0.01442000  0.45916000  1
  C  C278  1  0.44086000  0.48449000  0.98629000  1
  C  C279  1  0.94086000  0.98629000  0.48449000  1
  C  C280  1  0.49255000  0.34614000  0.11706000  1
  C  C281  1  0.99255000  0.11706000  0.34614000  1
  C  C282  1  0.49130000  0.31898000  0.14360000  1
  C  C283  1  0.99130000  0.14360000  0.31898000  1
  C  C284  1  0.86820000  0.39828000  0.06416000  1
  C  C285  1  0.36820000  0.06416000  0.39828000  1
  C  C286  1  0.04960000  0.49205000  0.96849000  1
  C  C287  1  0.54960000  0.96849000  0.49205000  1
  C  C288  1  0.05190000  0.72014000  0.73704000  1
  C  C289  1  0.55190000  0.73704000  0.72014000  1
  C  C290  1  0.45680000  0.35674000  0.09940000  1
  C  C291  1  0.95680000  0.09940000  0.35674000  1
  C  C292  1  0.45430000  0.30242000  0.15246000  1
  C  C293  1  0.95430000  0.15246000  0.30242000  1
  C  C294  1  0.45790000  0.38245000  0.07117000  1
  C  C295  1  0.95790000  0.07117000  0.38245000  1
  C  C296  1  0.46060000  0.40579000  0.04429000  1
  C  C297  1  0.96060000  0.04429000  0.40579000  1
  C  C298  1  0.67730000  0.38968000  0.05908000  1
  C  C299  1  0.17730000  0.05908000  0.38968000  1
  C  C300  1  0.41984000  0.34018000  0.10826000  1
  C  C301  1  0.91984000  0.10826000  0.34018000  1
  C  C302  1  0.63389000  0.42665000  0.02123000  1
  C  C303  1  0.13389000  0.02123000  0.42665000  1
  C  C304  1  0.41858000  0.31302000  0.13480000  1
  C  C305  1  0.91858000  0.13480000  0.31302000  1
  C  C306  1  0.45330000  0.27142000  0.17594000  1
  C  C307  1  0.95330000  0.17594000  0.27142000  1
  C  C308  1  0.46381000  0.42932000  0.01592000  1
  C  C309  1  0.96381000  0.01592000  0.42932000  1
  C  C310  1  0.47103000  0.47997000  0.95967000  1
  C  C311  1  0.97103000  0.95967000  0.47997000  1
  C  C312  1  0.87434000  0.43575000  0.99787000  1
  C  C313  1  0.37434000  0.99787000  0.43575000  1
  C  C314  1  0.01949000  0.46305000  0.96519000  1
  C  C315  1  0.51949000  0.96519000  0.46305000  1
  C  C316  1  0.01732000  0.43555000  0.99133000  1
  C  C317  1  0.51732000  0.99133000  0.43555000  1
  C  C318  1  0.95900000  0.26278000  0.15956000  1
  C  C319  1  0.45900000  0.15956000  0.26278000  1
  C  C320  1  0.00168000  0.30144000  0.12024000  1
  C  C321  1  0.50168000  0.12024000  0.30144000  1
  C  C322  1  0.00573000  0.32486000  0.09052000  1
  C  C323  1  0.50573000  0.09052000  0.32486000  1
  C  C324  1  0.96358000  0.28683000  0.12849000  1
  C  C325  1  0.46358000  0.12849000  0.28683000  1
  C  C326  1  0.84658000  0.38419000  0.03103000  1
  C  C327  1  0.34658000  0.03103000  0.38419000  1
  C  C328  1  0.49398000  0.42481000  0.98931000  1
  C  C329  1  0.99398000  0.98931000  0.42481000  1
  C  C330  1  0.49759000  0.45014000  0.96118000  1
  C  C331  1  0.99759000  0.96118000  0.45014000  1
  C  C332  1  0.97170000  0.33366000  0.06906000  1
  C  C333  1  0.47170000  0.06906000  0.33366000  1
  C  C334  1  0.92954000  0.29564000  0.10702000  1
  C  C335  1  0.42954000  0.10702000  0.29564000  1
  C  C336  1  0.84966000  0.40292000  0.99790000  1
  C  C337  1  0.34966000  0.99790000  0.40292000  1
  C  C338  1  0.97590000  0.35881000  0.04121000  1
  C  C339  1  0.47590000  0.04121000  0.35881000  1
  C  C340  1  0.99091000  0.46234000  0.93516000  1
  C  C341  1  0.49091000  0.93516000  0.46234000  1
  C  C342  1  0.98230000  0.38096000  0.01634000  1
  C  C343  1  0.48230000  0.01634000  0.38096000  1
  C  C344  1  0.93359000  0.31906000  0.07730000  1
  C  C345  1  0.43359000  0.07730000  0.31906000  1
  C  C346  1  0.05190000  0.68725000  0.70807000  1
  C  C347  1  0.55190000  0.70807000  0.68725000  1
  C  C348  1  0.98657000  0.40734000  0.98742000  1
  C  C349  1  0.48657000  0.98742000  0.40734000  1
  C  C350  1  0.68764000  0.36772000  0.02620000  1
  C  C351  1  0.18764000  0.02620000  0.36772000  1
  C  C352  1  0.64420000  0.40470000  0.98836000  1
  C  C353  1  0.14420000  0.98836000  0.40470000  1
  C  C354  1  0.82290000  0.34928000  0.02930000  1
  C  C355  1  0.32290000  0.02930000  0.34928000  1
  C  C356  1  0.52850000  0.44553000  0.93237000  1
  C  C357  1  0.02850000  0.93237000  0.44553000  1
  C  C358  1  0.08990000  0.67665000  0.69587000  1
  C  C359  1  0.58990000  0.69587000  0.67665000  1
  C  C360  1  0.67110000  0.37524000  0.99084000  1
  C  C361  1  0.17110000  0.99084000  0.37524000  1
  C  C362  1  0.71660000  0.33728000  0.02832000  1
  C  C363  1  0.21660000  0.02832000  0.33728000  1
  C  C364  1  0.96016000  0.43413000  0.93125000  1
  C  C365  1  0.46016000  0.93125000  0.43413000  1
  C  C366  1  0.95799000  0.40663000  0.95739000  1
  C  C367  1  0.45799000  0.95739000  0.40663000  1
  C  C368  1  0.01715000  0.66779000  0.69221000  1
  C  C369  1  0.51715000  0.69221000  0.66779000  1
  C  C370  1  0.55340000  0.44430000  0.90928000  1
  C  C371  1  0.05340000  0.90928000  0.44430000  1
  C  C372  1  0.59680000  0.47727000  0.86911000  1
  C  C373  1  0.09680000  0.86911000  0.47727000  1
  C  C374  1  0.92810000  0.43541000  0.90339000  1
  C  C375  1  0.42810000  0.90339000  0.43541000  1
  C  C376  1  0.45460000  0.17165000  0.15911000  1
  C  C377  1  0.95460000  0.15911000  0.17165000  1
  C  C378  1  0.57994000  0.44243000  0.87791000  1
  C  C379  1  0.07994000  0.87791000  0.44243000  1
  C  C380  1  0.62350000  0.47849000  0.83939000  1
  C  C381  1  0.12350000  0.83939000  0.47849000  1
  C  C382  1  0.89820000  0.43640000  0.87900000  1
  C  C383  1  0.39820000  0.87900000  0.43640000  1
  C  C384  1  0.09326000  0.64660000  0.66784000  1
  C  C385  1  0.59326000  0.66784000  0.64660000  1
  C  C386  1  0.85650000  0.47311000  0.84001000  1
  C  C387  1  0.35650000  0.84001000  0.47311000  1
  C  C388  1  0.02050000  0.63773000  0.66417000  1
  C  C389  1  0.52050000  0.66417000  0.63773000  1
  C  C390  1  0.82370000  0.47582000  0.81456000  1
  C  C391  1  0.32370000  0.81456000  0.47582000  1
  C  C392  1  0.86704000  0.43764000  0.85124000  1
  C  C393  1  0.36704000  0.85124000  0.43764000  1
  C  C394  1  0.83346000  0.24688000  0.03352000  1
  C  C395  1  0.33346000  0.03352000  0.24688000  1
  C  C396  1  0.05850000  0.62714000  0.65198000  1
  C  C397  1  0.55850000  0.65198000  0.62714000  1
  C  C398  1  0.88717000  0.21032000  0.06318000  1
  C  C399  1  0.38717000  0.06318000  0.21032000  1
  C  C400  1  0.72340000  0.23432000  0.03868000  1
  C  C401  1  0.22340000  0.03868000  0.23432000  1
  C  C402  1  0.45680000  0.14777000  0.12409000  1
  C  C403  1  0.95680000  0.12409000  0.14777000  1
  C  C404  1  0.68402000  0.19270000  0.07390000  1
  C  C405  1  0.18402000  0.07390000  0.19270000  1
  C  C406  1  0.58990000  0.40881000  0.85697000  1
  C  C407  1  0.08990000  0.85697000  0.40881000  1
  C  C408  1  0.63340000  0.44488000  0.81846000  1
  C  C409  1  0.13340000  0.81846000  0.44488000  1
  C  C410  1  0.86747000  0.22030000  0.03008000  1
  C  C411  1  0.36747000  0.03008000  0.22030000  1
  C  C412  1  0.49234000  0.14494000  0.10388000  1
  C  C413  1  0.99234000  0.10388000  0.14494000  1
  C  C414  1  0.91819000  0.18442000  0.06076000  1
  C  C415  1  0.41819000  0.06076000  0.18442000  1
  C  C416  1  0.80157000  0.44306000  0.80034000  1
  C  C417  1  0.30157000  0.80034000  0.44306000  1
  C  C418  1  0.84490000  0.40487000  0.83701000  1
  C  C419  1  0.34490000  0.83701000  0.40487000  1
  C  C420  1  0.65787000  0.16143000  0.07729000  1
  C  C421  1  0.15787000  0.07729000  0.16143000  1
  C  C422  1  0.69828000  0.19992000  0.03830000  1
  C  C423  1  0.19828000  0.03830000  0.19992000  1
  C  C424  1  0.42208000  0.12676000  0.11064000  1
  C  C425  1  0.92208000  0.11064000  0.12676000  1
  C  C426  1  0.61660000  0.41004000  0.82724000  1
  C  C427  1  0.11660000  0.82724000  0.41004000  1
  C  C428  1  0.66020000  0.44956000  0.78564000  1
  C  C429  1  0.16020000  0.78564000  0.44956000  1
  C  C430  1  0.76650000  0.44598000  0.77482000  1
  C  C431  1  0.26650000  0.77482000  0.44598000  1
  C  C432  1  0.05990000  0.59794000  0.62146000  1
  C  C433  1  0.55990000  0.62146000  0.59794000  1
  C  C434  1  0.81210000  0.40759000  0.81157000  1
  C  C435  1  0.31210000  0.81157000  0.40759000  1
  C  C436  1  0.87880000  0.20437000  0.99455000  1
  C  C437  1  0.37880000  0.99455000  0.20437000  1
  C  C438  1  0.92952000  0.16850000  0.02524000  1
  C  C439  1  0.42952000  0.02524000  0.16850000  1
  C  C440  1  0.49311000  0.12110000  0.07024000  1
  C  C441  1  0.99311000  0.07024000  0.12110000  1
  C  C442  1  0.64598000  0.13739000  0.04511000  1
  C  C443  1  0.14598000  0.04511000  0.13739000  1
  C  C444  1  0.68639000  0.17587000  0.00611000  1
  C  C445  1  0.18639000  0.00611000  0.17587000  1
  C  C446  1  0.42285000  0.10292000  0.07700000  1
  C  C447  1  0.92285000  0.07700000  0.10292000  1
  C  C448  1  0.90983000  0.17847000  0.99213000  1
  C  C449  1  0.40983000  0.99213000  0.17847000  1
  C  C450  1  0.06090000  0.57245000  0.59575000  1
  C  C451  1  0.56090000  0.59575000  0.57245000  1
  C  C452  1  0.96140000  0.13930000  0.02258000  1
  C  C453  1  0.46140000  0.02258000  0.13930000  1
  C  C454  1  0.45840000  0.10009000  0.05679000  1
  C  C455  1  0.95840000  0.05679000  0.10009000  1
  C  C456  1  0.66024000  0.14461000  0.00951000  1
  C  C457  1  0.16024000  0.00951000  0.14461000  1
  C  C458  1  0.62030000  0.10430000  0.04720000  1
  C  C459  1  0.12030000  0.04720000  0.10430000  1
  C  C460  1  0.59270000  0.49292000  0.65404000  1
  C  C461  1  0.09270000  0.65404000  0.49292000  1
  C  C462  1  0.64470000  0.45622000  0.68352000  1
  C  C463  1  0.14470000  0.68352000  0.45622000  1
  C  C464  1  0.98610000  0.11582000  0.01926000  1
  C  C465  1  0.48610000  0.01926000  0.11582000  1
  C  C466  1  0.75694000  0.45856000  0.67544000  1
  C  C467  1  0.25694000  0.67544000  0.45856000  1
  C  C468  1  0.04425000  0.08479000  0.04671000  1
  C  C469  1  0.54425000  0.04671000  0.08479000  1
  C  C470  1  0.59840000  0.07704000  0.05154000  1
  C  C471  1  0.09840000  0.05154000  0.07704000  1
  C  C472  1  0.79553000  0.49400000  0.63422000  1
  C  C473  1  0.29553000  0.63422000  0.49400000  1
  C  C474  1  0.56070000  0.49610000  0.62788000  1
  C  C475  1  0.06070000  0.62788000  0.49610000  1
  C  C476  1  0.61060000  0.45790000  0.65670000  1
  C  C477  1  0.11060000  0.65670000  0.45790000  1
  C  C478  1  0.06253000  0.54281000  0.56423000  1
  C  C479  1  0.56253000  0.56423000  0.54281000  1
  C  C480  1  0.01547000  0.08764000  0.01740000  1
  C  C481  1  0.51547000  0.01740000  0.08764000  1
  C  C482  1  0.82119000  0.49850000  0.60416000  1
  C  C483  1  0.32119000  0.60416000  0.49850000  1
  C  C484  1  0.07091000  0.05486000  0.04470000  1
  C  C485  1  0.57091000  0.04470000  0.05486000  1
  C  C486  1  0.78142000  0.45769000  0.64141000  1
  C  C487  1  0.28142000  0.64141000  0.45769000  1
  C  C488  1  0.46130000  0.07149000  0.02447000  1
  C  C489  1  0.96130000  0.02447000  0.07149000  1
  C  C490  1  0.58932000  0.53483000  0.54609000  1
  C  C491  1  0.08932000  0.54609000  0.53483000  1
  C  C492  1  0.03620000  0.51104000  0.56366000  1
  C  C493  1  0.53620000  0.56366000  0.51104000  1
  C  C494  1  0.54663000  0.46426000  0.60438000  1
  C  C495  1  0.04663000  0.60438000  0.46426000  1
  C  C496  1  0.59653000  0.42606000  0.63320000  1
  C  C497  1  0.09653000  0.63320000  0.42606000  1
  C  C498  1  0.83274000  0.46667000  0.58129000  1
  C  C499  1  0.33274000  0.58129000  0.46667000  1
  C  C500  1  0.46130000  0.04834000  0.99954000  1
  C  C501  1  0.96130000  0.99954000  0.04834000  1
  C  C502  1  0.01334000  0.06056000  0.98606000  1
  C  C503  1  0.51334000  0.98606000  0.06056000  1
  C  C504  1  0.79297000  0.42586000  0.61856000  1
  C  C505  1  0.29297000  0.61856000  0.42586000  1
  C  C506  1  0.06878000  0.02777000  0.01337000  1
  C  C507  1  0.56878000  0.01337000  0.02777000  1
  C  C508  1  0.51390000  0.46584000  0.57398000  1
  C  C509  1  0.01390000  0.57398000  0.46584000  1
  C  C510  1  0.56450000  0.42924000  0.60704000  1
  C  C511  1  0.06450000  0.60704000  0.42924000  1
  C  C512  1  0.85780000  0.47112000  0.55152000  1
  C  C513  1  0.35780000  0.55152000  0.47112000  1
  C  C514  1  0.58978000  0.50483000  0.51761000  1
  C  C515  1  0.08978000  0.51761000  0.50483000  1
  C  C516  1  0.81863000  0.43035000  0.58849000  1
  C  C517  1  0.31863000  0.58849000  0.43035000  1
  C  C518  1  0.49080000  0.46834000  0.54860000  1
  C  C519  1  0.99080000  0.54860000  0.46834000  1
  C  C520  1  0.03666000  0.48256000  0.53366000  1
  C  C521  1  0.53666000  0.53366000  0.48256000  1
  C  C522  1  0.04000000  0.03063000  0.98405000  1
  C  C523  1  0.54000000  0.98405000  0.03063000  1
  C  C524  1  0.43655000  0.49575000  0.51417000  1
  C  C525  1  0.93655000  0.51417000  0.49575000  1
  C  C526  1  0.88250000  0.47588000  0.52578000  1
  C  C527  1  0.38250000  0.52578000  0.47588000  1
  Cu  Cu528  1  0.29568000  0.58683000  0.27745000  1
  Cu  Cu529  1  0.79568000  0.27745000  0.58683000  1
  Cu  Cu530  1  0.29145000  0.51199000  0.26473000  1
  Cu  Cu531  1  0.79145000  0.26473000  0.51199000  1
  Cu  Cu532  1  0.22791000  0.71371000  0.00613000  1
  Cu  Cu533  1  0.72791000  0.00613000  0.71371000  1
  Cu  Cu534  1  0.22343000  0.70473000  0.93103000  1
  Cu  Cu535  1  0.72343000  0.93103000  0.70473000  1
  Cu  Cu536  1  0.08515000  0.78081000  0.78695000  1
  Cu  Cu537  1  0.58515000  0.78695000  0.78081000  1
  Cu  Cu538  1  0.00545000  0.77710000  0.77948000  1
  Cu  Cu539  1  0.50545000  0.77948000  0.77710000  1
  Cu  Cu540  1  0.99455000  0.22290000  0.22052000  1
  Cu  Cu541  1  0.49455000  0.22052000  0.22290000  1
  Cu  Cu542  1  0.91485000  0.21919000  0.21305000  1
  Cu  Cu543  1  0.41485000  0.21305000  0.21919000  1
  Cu  Cu544  1  0.77657000  0.29527000  0.06897000  1
  Cu  Cu545  1  0.27657000  0.06897000  0.29527000  1
  Cu  Cu546  1  0.77209000  0.28629000  0.99387000  1
  Cu  Cu547  1  0.27209000  0.99387000  0.28629000  1
  Cu  Cu548  1  0.70855000  0.48801000  0.73527000  1
  Cu  Cu549  1  0.20855000  0.73527000  0.48801000  1
  Cu  Cu550  1  0.70432000  0.41317000  0.72255000  1
  Cu  Cu551  1  0.20432000  0.72255000  0.41317000  1
  H  H552  1  0.05500000  0.59110000  0.40770000  1
  H  H553  1  0.55500000  0.40770000  0.59110000  1
  H  H554  1  0.32640000  0.57300000  0.40880000  1
  H  H555  1  0.82640000  0.40880000  0.57300000  1
  H  H556  1  0.41320000  0.98800000  0.99240000  1
  H  H557  1  0.91320000  0.99240000  0.98800000  1
  H  H558  1  0.21660000  0.59870000  0.37650000  1
  H  H559  1  0.71660000  0.37650000  0.59870000  1
  H  H560  1  0.00610000  0.93750000  0.03370000  1
  H  H561  1  0.50610000  0.03370000  0.93750000  1
  H  H562  1  0.39140000  0.59760000  0.36500000  1
  H  H563  1  0.89140000  0.36500000  0.59760000  1
  H  H564  1  0.56380000  0.48400000  0.46660000  1
  H  H565  1  0.06380000  0.46660000  0.48400000  1
  H  H566  1  0.98190000  0.49120000  0.41640000  1
  H  H567  1  0.48190000  0.41640000  0.49120000  1
  H  H568  1  0.39290000  0.46480000  0.43240000  1
  H  H569  1  0.89290000  0.43240000  0.46480000  1
  H  H570  1  0.34780000  0.87170000  0.01230000  1
  H  H571  1  0.84780000  0.01230000  0.87170000  1
  H  H572  1  0.16930000  0.47690000  0.40070000  1
  H  H573  1  0.66930000  0.40070000  0.47690000  1
  H  H574  1  0.08250000  0.83230000  0.03190000  1
  H  H575  1  0.58250000  0.03190000  0.83230000  1
  H  H576  1  0.45140000  0.48030000  0.37390000  1
  H  H577  1  0.95140000  0.37390000  0.48030000  1
  H  H578  1  0.60060000  0.91130000  0.93210000  1
  H  H579  1  0.10060000  0.93210000  0.91130000  1
  H  H580  1  0.30400000  0.81920000  0.01800000  1
  H  H581  1  0.80400000  0.01800000  0.81920000  1
  H  H582  1  0.21230000  0.48450000  0.35030000  1
  H  H583  1  0.71230000  0.35030000  0.48450000  1
  H  H584  1  0.95430000  0.89690000  0.93210000  1
  H  H585  1  0.45430000  0.93210000  0.89690000  1
  H  H586  1  0.48290000  0.88080000  0.94340000  1
  H  H587  1  0.98290000  0.94340000  0.88080000  1
  H  H588  1  0.13450000  0.78890000  0.02790000  1
  H  H589  1  0.63450000  0.02790000  0.78890000  1
  H  H590  1  0.39780000  0.48550000  0.33010000  1
  H  H591  1  0.89780000  0.33010000  0.48550000  1
  H  H592  1  0.20280000  0.61460000  0.19800000  1
  H  H593  1  0.70280000  0.19800000  0.61460000  1
  H  H594  1  0.37670000  0.61270000  0.18690000  1
  H  H595  1  0.87670000  0.18690000  0.61270000  1
  H  H596  1  0.14800000  0.61920000  0.15540000  1
  H  H597  1  0.64800000  0.15540000  0.61920000  1
  H  H598  1  0.42150000  0.61470000  0.13710000  1
  H  H599  1  0.92150000  0.13710000  0.61470000  1
  H  H600  1  0.60190000  0.87130000  0.87570000  1
  H  H601  1  0.10190000  0.87570000  0.87130000  1
  H  H602  1  0.35180000  0.84340000  0.89860000  1
  H  H603  1  0.85180000  0.89860000  0.84340000  1
  H  H604  1  0.06850000  0.82230000  0.91690000  1
  H  H605  1  0.56850000  0.91690000  0.82230000  1
  H  H606  1  0.48420000  0.84080000  0.88700000  1
  H  H607  1  0.98420000  0.88700000  0.84080000  1
  H  H608  1  0.00300000  0.37540000  0.34660000  1
  H  H609  1  0.50300000  0.34660000  0.37540000  1
  H  H610  1  0.88100000  0.36060000  0.34040000  1
  H  H611  1  0.38100000  0.34040000  0.36060000  1
  H  H612  1  0.30790000  0.79110000  0.90430000  1
  H  H613  1  0.80790000  0.90430000  0.79110000  1
  H  H614  1  0.18340000  0.50020000  0.19300000  1
  H  H615  1  0.68340000  0.19300000  0.50020000  1
  H  H616  1  0.12050000  0.77900000  0.91280000  1
  H  H617  1  0.62050000  0.91280000  0.77900000  1
  H  H618  1  0.32200000  0.63960000  0.03140000  1
  H  H619  1  0.82200000  0.03140000  0.63960000  1
  H  H620  1  0.36510000  0.49800000  0.16660000  1
  H  H621  1  0.86510000  0.16660000  0.49800000  1
  H  H622  1  0.06280000  0.61250000  0.04530000  1
  H  H623  1  0.56280000  0.04530000  0.61250000  1
  H  H624  1  0.12850000  0.50480000  0.15040000  1
  H  H625  1  0.62850000  0.15040000  0.50480000  1
  H  H626  1  0.16500000  0.60670000  0.02450000  1
  H  H627  1  0.66500000  0.02450000  0.60670000  1
  H  H628  1  0.36700000  0.59020000  0.03560000  1
  H  H629  1  0.86700000  0.03560000  0.59020000  1
  H  H630  1  0.00860000  0.32510000  0.29950000  1
  H  H631  1  0.50860000  0.29950000  0.32510000  1
  H  H632  1  0.41000000  0.50000000  0.11680000  1
  H  H633  1  0.91000000  0.11680000  0.50000000  1
  H  H634  1  0.08940000  0.67500000  0.93720000  1
  H  H635  1  0.58940000  0.93720000  0.67500000  1
  H  H636  1  0.48810000  0.59530000  0.00970000  1
  H  H637  1  0.98810000  0.00970000  0.59530000  1
  H  H638  1  0.88660000  0.31020000  0.29340000  1
  H  H639  1  0.38660000  0.29340000  0.31020000  1
  H  H640  1  0.09620000  0.71420000  0.88740000  1
  H  H641  1  0.00760000  0.51910000  0.08250000  1
  H  H642  1  0.50760000  0.08250000  0.51910000  1
  H  H643  1  0.59620000  0.88740000  0.71420000  1
  H  H644  1  0.96850000  0.66530000  0.91510000  1
  H  H645  1  0.46850000  0.91510000  0.66530000  1
  H  H646  1  0.12360000  0.55160000  0.02460000  1
  H  H647  1  0.62360000  0.02460000  0.55160000  1
  H  H648  1  0.97530000  0.70450000  0.86530000  1
  H  H649  1  0.47530000  0.86530000  0.70450000  1
  H  H650  1  0.52650000  0.50290000  0.05930000  1
  H  H651  1  0.02650000  0.05930000  0.50290000  1
  H  H652  1  0.60640000  0.69820000  0.85920000  1
  H  H653  1  0.10640000  0.85920000  0.69820000  1
  H  H654  1  0.60430000  0.65270000  0.90370000  1
  H  H655  1  0.10430000  0.90370000  0.65270000  1
  H  H656  1  0.96340000  0.56400000  0.98840000  1
  H  H657  1  0.46340000  0.98840000  0.56400000  1
  H  H658  1  0.48450000  0.68820000  0.84440000  1
  H  H659  1  0.98450000  0.84440000  0.68820000  1
  H  H660  1  0.31150000  0.61540000  0.91700000  1
  H  H661  1  0.81150000  0.91700000  0.61540000  1
  H  H662  1  0.48240000  0.64270000  0.88890000  1
  H  H663  1  0.98240000  0.88890000  0.64270000  1
  H  H664  1  0.13390000  0.61440000  0.91340000  1
  H  H665  1  0.63390000  0.91340000  0.61440000  1
  H  H666  1  0.90750000  0.44070000  0.08650000  1
  H  H667  1  0.40750000  0.08650000  0.44070000  1
  H  H668  1  0.64350000  0.43400000  0.07880000  1
  H  H669  1  0.14350000  0.07880000  0.43400000  1
  H  H670  1  0.58320000  0.53780000  0.96760000  1
  H  H671  1  0.08320000  0.96760000  0.53780000  1
  H  H672  1  0.41680000  0.46220000  0.03240000  1
  H  H673  1  0.91680000  0.03240000  0.46220000  1
  H  H674  1  0.35650000  0.56600000  0.92120000  1
  H  H675  1  0.85650000  0.92120000  0.56600000  1
  H  H676  1  0.09250000  0.55930000  0.91350000  1
  H  H677  1  0.59250000  0.91350000  0.55930000  1
  H  H678  1  0.86610000  0.38560000  0.08660000  1
  H  H679  1  0.36610000  0.08660000  0.38560000  1
  H  H680  1  0.51760000  0.35730000  0.11110000  1
  H  H681  1  0.01760000  0.11110000  0.35730000  1
  H  H682  1  0.68850000  0.38460000  0.08300000  1
  H  H683  1  0.18850000  0.08300000  0.38460000  1
  H  H684  1  0.51550000  0.31180000  0.15560000  1
  H  H685  1  0.01550000  0.15560000  0.31180000  1
  H  H686  1  0.03660000  0.43600000  0.01160000  1
  H  H687  1  0.53660000  0.01160000  0.43600000  1
  H  H688  1  0.39570000  0.34730000  0.09630000  1
  H  H689  1  0.89570000  0.09630000  0.34730000  1
  H  H690  1  0.39360000  0.30180000  0.14080000  1
  H  H691  1  0.89360000  0.14080000  0.30180000  1
  H  H692  1  0.47350000  0.49710000  0.94070000  1
  H  H693  1  0.97350000  0.94070000  0.49710000  1
  H  H694  1  0.02470000  0.29550000  0.13470000  1
  H  H695  1  0.52470000  0.13470000  0.29550000  1
  H  H696  1  0.87640000  0.44840000  0.97540000  1
  H  H697  1  0.37640000  0.97540000  0.44840000  1
  H  H698  1  0.03150000  0.33470000  0.08490000  1
  H  H699  1  0.53150000  0.08490000  0.33470000  1
  H  H700  1  0.99240000  0.48090000  0.91750000  1
  H  H701  1  0.90380000  0.28580000  0.11260000  1
  H  H702  1  0.40380000  0.11260000  0.28580000  1
  H  H703  1  0.49240000  0.91750000  0.48090000  1
  H  H704  1  0.11340000  0.68980000  0.70660000  1
  H  H705  1  0.61340000  0.70660000  0.68980000  1
  H  H706  1  0.51190000  0.40470000  0.99030000  1
  H  H707  1  0.01190000  0.99030000  0.40470000  1
  H  H708  1  0.91060000  0.32500000  0.06280000  1
  H  H709  1  0.41060000  0.06280000  0.32500000  1
  H  H710  1  0.59000000  0.50000000  0.88320000  1
  H  H711  1  0.09000000  0.88320000  0.50000000  1
  H  H712  1  0.99140000  0.67490000  0.70050000  1
  H  H713  1  0.49140000  0.70050000  0.67490000  1
  H  H714  1  0.63300000  0.40980000  0.96440000  1
  H  H715  1  0.13300000  0.96440000  0.40980000  1
  H  H716  1  0.83500000  0.39330000  0.97550000  1
  H  H717  1  0.33500000  0.97550000  0.39330000  1
  H  H718  1  0.87150000  0.49520000  0.84960000  1
  H  H719  1  0.37150000  0.84960000  0.49520000  1
  H  H720  1  0.93720000  0.38750000  0.95470000  1
  H  H721  1  0.43720000  0.95470000  0.38750000  1
  H  H722  1  0.63490000  0.50200000  0.83340000  1
  H  H723  1  0.13490000  0.83340000  0.50200000  1
  H  H724  1  0.67800000  0.36040000  0.96860000  1
  H  H725  1  0.17800000  0.96860000  0.36040000  1
  H  H726  1  0.87950000  0.22100000  0.08720000  1
  H  H727  1  0.37950000  0.08720000  0.22100000  1
  H  H728  1  0.81660000  0.49980000  0.80700000  1
  H  H729  1  0.31660000  0.80700000  0.49980000  1
  H  H730  1  0.69210000  0.20890000  0.09570000  1
  H  H731  1  0.19210000  0.09570000  0.20890000  1
  H  H732  1  0.11900000  0.63940000  0.65960000  1
  H  H733  1  0.61900000  0.65960000  0.63940000  1
  H  H734  1  0.99700000  0.62460000  0.65340000  1
  H  H735  1  0.49700000  0.65340000  0.62460000  1
  H  H736  1  0.51580000  0.15920000  0.11300000  1
  H  H737  1  0.01580000  0.11300000  0.15920000  1
  H  H738  1  0.93150000  0.17770000  0.08310000  1
  H  H739  1  0.43150000  0.08310000  0.17770000  1
  H  H740  1  0.64820000  0.15660000  0.10140000  1
  H  H741  1  0.14820000  0.10140000  0.15660000  1
  H  H742  1  0.39810000  0.12870000  0.12430000  1
  H  H743  1  0.89810000  0.12430000  0.12870000  1
  H  H744  1  0.57850000  0.38530000  0.86290000  1
  H  H745  1  0.07850000  0.86290000  0.38530000  1
  H  H746  1  0.85200000  0.38080000  0.84460000  1
  H  H747  1  0.35200000  0.84460000  0.38080000  1
  H  H748  1  0.62330000  0.38730000  0.81310000  1
  H  H749  1  0.12330000  0.81310000  0.38730000  1
  H  H750  1  0.79720000  0.38540000  0.80200000  1
  H  H751  1  0.29720000  0.80200000  0.38540000  1
  H  H752  1  0.60220000  0.51450000  0.66990000  1
  H  H753  1  0.10220000  0.66990000  0.51450000  1
  H  H754  1  0.86550000  0.21110000  0.97210000  1
  H  H755  1  0.36550000  0.97210000  0.21110000  1
  H  H756  1  0.51710000  0.11920000  0.05660000  1
  H  H757  1  0.01710000  0.05660000  0.11920000  1
  H  H758  1  0.04570000  0.10310000  0.06790000  1
  H  H759  1  0.54570000  0.06790000  0.10310000  1
  H  H760  1  0.78770000  0.51550000  0.64970000  1
  H  H761  1  0.28770000  0.64970000  0.51550000  1
  H  H762  1  0.69600000  0.18080000  0.98200000  1
  H  H763  1  0.19600000  0.98200000  0.18080000  1
  H  H764  1  0.39940000  0.08870000  0.06790000  1
  H  H765  1  0.89940000  0.06790000  0.08870000  1
  H  H766  1  0.54860000  0.51970000  0.62610000  1
  H  H767  1  0.04860000  0.62610000  0.51970000  1
  H  H768  1  0.91750000  0.16770000  0.96810000  1
  H  H769  1  0.41750000  0.96810000  0.16770000  1
  H  H770  1  0.83070000  0.52310000  0.59930000  1
  H  H771  1  0.33070000  0.59930000  0.52310000  1
  H  H772  1  0.65220000  0.12830000  0.98770000  1
  H  H773  1  0.15220000  0.98770000  0.12830000  1
  H  H774  1  0.60710000  0.53520000  0.56760000  1
  H  H775  1  0.10710000  0.56760000  0.53520000  1
  H  H776  1  0.01810000  0.50880000  0.58360000  1
  H  H777  1  0.51810000  0.58360000  0.50880000  1
  H  H778  1  0.43620000  0.51600000  0.53340000  1
  H  H779  1  0.93620000  0.53340000  0.51600000  1
  H  H780  1  0.60860000  0.40240000  0.63500000  1
  H  H781  1  0.10860000  0.63500000  0.40240000  1
  H  H782  1  0.99390000  0.06250000  0.96630000  1
  H  H783  1  0.49390000  0.96630000  0.06250000  1
  H  H784  1  0.78340000  0.40130000  0.62350000  1
  H  H785  1  0.28340000  0.62350000  0.40130000  1
  H  H786  1  0.58680000  0.01200000  0.00760000  1
  H  H787  1  0.08680000  0.00760000  0.01200000  1
  H  H788  1  0.67360000  0.42700000  0.59120000  1
  H  H789  1  0.17360000  0.59120000  0.42700000  1
  H  H790  1  0.94500000  0.40890000  0.59230000  1
  H  H791  1  0.44500000  0.59230000  0.40890000  1
  O  O792  1  0.25814000  0.57810000  0.31848000  1
  O  O793  1  0.75814000  0.31848000  0.57810000  1
  O  O794  1  0.34024000  0.57687000  0.31279000  1
  O  O795  1  0.84024000  0.31279000  0.57687000  1
  O  O796  1  0.24980000  0.58630000  0.24102000  1
  O  O797  1  0.74980000  0.24102000  0.58630000  1
  O  O798  1  0.25851000  0.51456000  0.30912000  1
  O  O799  1  0.75851000  0.30912000  0.51456000  1
  O  O800  1  0.33317000  0.58330000  0.23378000  1
  O  O801  1  0.83317000  0.23378000  0.58330000  1
  O  O802  1  0.34016000  0.51401000  0.29801000  1
  O  O803  1  0.84016000  0.29801000  0.51401000  1
  O  O804  1  0.26277000  0.75825000  0.99669000  1
  O  O805  1  0.76277000  0.99669000  0.75825000  1
  O  O806  1  0.24381000  0.52144000  0.23280000  1
  O  O807  1  0.74381000  0.23280000  0.52144000  1
  O  O808  1  0.18151000  0.74406000  0.00112000  1
  O  O809  1  0.68151000  0.00112000  0.74406000  1
  O  O810  1  0.32529000  0.52065000  0.22257000  1
  O  O811  1  0.82529000  0.22257000  0.52065000  1
  O  O812  1  0.27387000  0.68100000  0.00296000  1
  O  O813  1  0.77387000  0.00296000  0.68100000  1
  O  O814  1  0.18106000  0.74259000  0.93655000  1
  O  O815  1  0.68106000  0.93655000  0.74259000  1
  O  O816  1  0.26226000  0.74584000  0.93252000  1
  O  O817  1  0.76226000  0.93252000  0.74584000  1
  O  O818  1  0.19318000  0.66627167  0.00039167  1
  O  O819  1  0.69318000  0.00039167  0.66627167  1
  O  O820  1  0.57772000  0.82228000  0.82532000  1
  O  O821  1  0.07772000  0.82532000  0.82228000  1
  O  O822  1  0.51112000  0.81255000  0.82573000  1
  O  O823  1  0.01112000  0.82573000  0.81255000  1
  O  O824  1  0.26537000  0.66768000  0.94040000  1
  O  O825  1  0.76537000  0.94040000  0.66768000  1
  O  O826  1  0.18346000  0.66432000  0.93704000  1
  O  O827  1  0.68346000  0.93704000  0.66432000  1
  O  O828  1  0.07471000  0.74797000  0.82947000  1
  O  O829  1  0.57471000  0.82947000  0.74797000  1
  O  O830  1  0.00864000  0.74828000  0.82402000  1
  O  O831  1  0.50864000  0.82402000  0.74828000  1
  O  O832  1  0.57987000  0.74484000  0.81438000  1
  O  O833  1  0.07987000  0.81438000  0.74484000  1
  O  O834  1  0.51305000  0.73610000  0.80684000  1
  O  O835  1  0.01305000  0.80684000  0.73610000  1
  O  O836  1  0.98422000  0.26932000  0.25328000  1
  O  O837  1  0.48422000  0.25328000  0.26932000  1
  O  O838  1  0.91616000  0.26243000  0.24921000  1
  O  O839  1  0.41616000  0.24921000  0.26243000  1
  O  O840  1  0.08384000  0.73757000  0.75079000  1
  O  O841  1  0.58384000  0.75079000  0.73757000  1
  O  O842  1  0.01578000  0.73068000  0.74672000  1
  O  O843  1  0.51578000  0.74672000  0.73068000  1
  O  O844  1  0.48695000  0.26390000  0.19316000  1
  O  O845  1  0.98695000  0.19316000  0.26390000  1
  O  O846  1  0.42013000  0.25516000  0.18562000  1
  O  O847  1  0.92013000  0.18562000  0.25516000  1
  O  O848  1  0.99136000  0.25172000  0.17598000  1
  O  O849  1  0.49136000  0.17598000  0.25172000  1
  O  O850  1  0.92529000  0.25203000  0.17053000  1
  O  O851  1  0.42529000  0.17053000  0.25203000  1
  O  O852  1  0.81654000  0.33568000  0.06296000  1
  O  O853  1  0.31654000  0.06296000  0.33568000  1
  O  O854  1  0.73463000  0.33232000  0.05960000  1
  O  O855  1  0.23463000  0.05960000  0.33232000  1
  O  O856  1  0.48888000  0.18745000  0.17427000  1
  O  O857  1  0.98888000  0.17427000  0.18745000  1
  O  O858  1  0.42228000  0.17772000  0.17468000  1
  O  O859  1  0.92228000  0.17468000  0.17772000  1
  O  O860  1  0.80682000  0.33372833  0.99960833  1
  O  O861  1  0.30682000  0.99960833  0.33372833  1
  O  O862  1  0.73774000  0.25416000  0.06748000  1
  O  O863  1  0.23774000  0.06748000  0.25416000  1
  O  O864  1  0.81894000  0.25741000  0.06345000  1
  O  O865  1  0.31894000  0.06345000  0.25741000  1
  O  O866  1  0.72613000  0.31900000  0.99704000  1
  O  O867  1  0.22613000  0.99704000  0.31900000  1
  O  O868  1  0.67471000  0.47935000  0.77743000  1
  O  O869  1  0.17471000  0.77743000  0.47935000  1
  O  O870  1  0.81849000  0.25594000  0.99888000  1
  O  O871  1  0.31849000  0.99888000  0.25594000  1
  O  O872  1  0.75619000  0.47856000  0.76720000  1
  O  O873  1  0.25619000  0.76720000  0.47856000  1
  O  O874  1  0.73723000  0.24175000  0.00331000  1
  O  O875  1  0.23723000  0.00331000  0.24175000  1
  O  O876  1  0.65984000  0.48599000  0.70199000  1
  O  O877  1  0.15984000  0.70199000  0.48599000  1
  O  O878  1  0.66683000  0.41670000  0.76622000  1
  O  O879  1  0.16683000  0.76622000  0.41670000  1
  O  O880  1  0.74149000  0.48544000  0.69088000  1
  O  O881  1  0.24149000  0.69088000  0.48544000  1
  O  O882  1  0.75020000  0.41370000  0.75898000  1
  O  O883  1  0.25020000  0.75898000  0.41370000  1
  O  O884  1  0.65976000  0.42313000  0.68721000  1
  O  O885  1  0.15976000  0.68721000  0.42313000  1
  O  O886  1  0.74186000  0.42190000  0.68152000  1
  O  O887  1  0.24186000  0.68152000  0.42190000  1
