# generated using pymatgen
data_CoH20(C3N)8
_symmetry_space_group_name_H-M   'P 1'
_cell_length_a   6.28720000
_cell_length_b   14.31400000
_cell_length_c   14.31400000
_cell_angle_alpha   90.00000000
_cell_angle_beta   90.00000000
_cell_angle_gamma   90.00000000
_symmetry_Int_Tables_number   1
_chemical_formula_structural   CoH20(C3N)8
_chemical_formula_sum   'Co2 H40 C48 N16'
_cell_volume   1288.18815517
_cell_formula_units_Z   2
loop_
 _symmetry_equiv_pos_site_id
 _symmetry_equiv_pos_as_xyz
  1  'x, y, z'
loop_
 _atom_site_type_symbol
 _atom_site_label
 _atom_site_symmetry_multiplicity
 _atom_site_fract_x
 _atom_site_fract_y
 _atom_site_fract_z
 _atom_site_occupancy
  Co  Co0  1  0.25000000  0.25000000  0.25000000  1
  Co  Co1  1  0.75000000  0.75000000  0.75000000  1
  H  H2  1  0.04130000  0.64730000  0.43720000  1
  H  H3  1  0.04130000  0.85270000  0.06280000  1
  H  H4  1  0.08540000  0.04800000  0.68960000  1
  H  H5  1  0.08540000  0.45200000  0.81040000  1
  H  H6  1  0.11710000  0.70180000  0.90530000  1
  H  H7  1  0.11710000  0.79820000  0.59470000  1
  H  H8  1  0.17570000  0.03420000  0.22470000  1
  H  H9  1  0.17570000  0.46580000  0.27530000  1
  H  H10  1  0.23570000  0.04790000  0.88530000  1
  H  H11  1  0.23570000  0.45210000  0.61470000  1
  H  H12  1  0.26430000  0.61470000  0.04790000  1
  H  H13  1  0.26430000  0.88530000  0.45210000  1
  H  H14  1  0.32430000  0.22470000  0.46580000  1
  H  H15  1  0.32430000  0.27530000  0.03420000  1
  H  H16  1  0.38290000  0.59470000  0.70180000  1
  H  H17  1  0.38290000  0.90530000  0.79820000  1
  H  H18  1  0.41460000  0.68960000  0.45200000  1
  H  H19  1  0.41460000  0.81040000  0.04800000  1
  H  H20  1  0.45870000  0.06280000  0.64730000  1
  H  H21  1  0.45870000  0.43720000  0.85270000  1
  H  H22  1  0.54130000  0.56280000  0.14730000  1
  H  H23  1  0.54130000  0.93720000  0.35270000  1
  H  H24  1  0.58540000  0.18960000  0.95200000  1
  H  H25  1  0.58540000  0.31040000  0.54800000  1
  H  H26  1  0.61710000  0.09470000  0.20180000  1
  H  H27  1  0.61710000  0.40530000  0.29820000  1
  H  H28  1  0.67570000  0.72470000  0.96580000  1
  H  H29  1  0.67570000  0.77530000  0.53420000  1
  H  H30  1  0.73570000  0.11470000  0.54790000  1
  H  H31  1  0.73570000  0.38530000  0.95210000  1
  H  H32  1  0.76430000  0.54790000  0.38530000  1
  H  H33  1  0.76430000  0.95210000  0.11470000  1
  H  H34  1  0.82430000  0.53420000  0.72470000  1
  H  H35  1  0.82430000  0.96580000  0.77530000  1
  H  H36  1  0.88290000  0.20180000  0.40530000  1
  H  H37  1  0.88290000  0.29820000  0.09470000  1
  H  H38  1  0.91460000  0.54800000  0.18960000  1
  H  H39  1  0.91460000  0.95200000  0.31040000  1
  H  H40  1  0.95870000  0.14730000  0.93720000  1
  H  H41  1  0.95870000  0.35270000  0.56280000  1
  C  C42  1  0.02560000  0.58790000  0.46260000  1
  C  C43  1  0.02560000  0.91210000  0.03740000  1
  C  C44  1  0.07800000  0.64880000  0.87180000  1
  C  C45  1  0.07800000  0.85120000  0.62820000  1
  C  C46  1  0.08640000  0.05820000  0.27060000  1
  C  C47  1  0.08640000  0.44180000  0.22940000  1
  C  C48  1  0.14180000  0.02839000  0.93149000  1
  C  C49  1  0.14180000  0.47161000  0.56851000  1
  C  C50  1  0.16090000  0.55780000  0.52900000  1
  C  C51  1  0.16090000  0.94220000  0.97100000  1
  C  C52  1  0.16280000  0.56200000  0.88380000  1
  C  C53  1  0.16280000  0.93800000  0.61620000  1
  C  C54  1  0.33720000  0.61620000  0.56200000  1
  C  C55  1  0.33720000  0.88380000  0.93800000  1
  C  C56  1  0.33910000  0.52900000  0.94220000  1
  C  C57  1  0.33910000  0.97100000  0.55780000  1
  C  C58  1  0.35820000  0.56851000  0.02839000  1
  C  C59  1  0.35820000  0.93149000  0.47161000  1
  C  C60  1  0.41360000  0.22940000  0.05820000  1
  C  C61  1  0.41360000  0.27060000  0.44180000  1
  C  C62  1  0.42200000  0.62820000  0.64880000  1
  C  C63  1  0.42200000  0.87180000  0.85120000  1
  C  C64  1  0.47440000  0.03740000  0.58790000  1
  C  C65  1  0.47440000  0.46260000  0.91210000  1
  C  C66  1  0.52560000  0.53740000  0.08790000  1
  C  C67  1  0.52560000  0.96260000  0.41210000  1
  C  C68  1  0.57800000  0.12820000  0.14880000  1
  C  C69  1  0.57800000  0.37180000  0.35120000  1
  C  C70  1  0.58640000  0.72940000  0.55820000  1
  C  C71  1  0.58640000  0.77060000  0.94180000  1
  C  C72  1  0.64180000  0.06851000  0.52839000  1
  C  C73  1  0.64180000  0.43149000  0.97161000  1
  C  C74  1  0.66090000  0.02900000  0.44220000  1
  C  C75  1  0.66090000  0.47100000  0.05780000  1
  C  C76  1  0.66280000  0.11620000  0.06200000  1
  C  C77  1  0.66280000  0.38380000  0.43800000  1
  C  C78  1  0.83720000  0.06200000  0.38380000  1
  C  C79  1  0.83720000  0.43800000  0.11620000  1
  C  C80  1  0.83910000  0.05780000  0.02900000  1
  C  C81  1  0.83910000  0.44220000  0.47100000  1
  C  C82  1  0.85820000  0.52839000  0.43149000  1
  C  C83  1  0.85820000  0.97161000  0.06851000  1
  C  C84  1  0.91360000  0.55820000  0.77060000  1
  C  C85  1  0.91360000  0.94180000  0.72940000  1
  C  C86  1  0.92200000  0.14880000  0.37180000  1
  C  C87  1  0.92200000  0.35120000  0.12820000  1
  C  C88  1  0.97440000  0.08790000  0.96260000  1
  C  C89  1  0.97440000  0.41210000  0.53740000  1
  N  N90  1  0.05990000  0.51029000  0.81944000  1
  N  N91  1  0.05990000  0.98971000  0.68056000  1
  N  N92  1  0.08000000  0.14602000  0.30007000  1
  N  N93  1  0.08000000  0.35398000  0.19993000  1
  N  N94  1  0.42000000  0.19993000  0.14602000  1
  N  N95  1  0.42000000  0.30007000  0.35398000  1
  N  N96  1  0.44010000  0.68056000  0.51029000  1
  N  N97  1  0.44010000  0.81944000  0.98971000  1
  N  N98  1  0.55990000  0.18056000  0.01029000  1
  N  N99  1  0.55990000  0.31944000  0.48971000  1
  N  N100  1  0.58000000  0.69993000  0.64602000  1
  N  N101  1  0.58000000  0.80007000  0.85398000  1
  N  N102  1  0.92000000  0.64602000  0.80007000  1
  N  N103  1  0.92000000  0.85398000  0.69993000  1
  N  N104  1  0.94010000  0.01029000  0.31944000  1
  N  N105  1  0.94010000  0.48971000  0.18056000  1
