# generated using pymatgen
data_PrH13C25(NO3)2
_symmetry_space_group_name_H-M   'P 1'
_cell_length_a   9.49020000
_cell_length_b   13.91230000
_cell_length_c   16.74370000
_cell_angle_alpha   83.04400000
_cell_angle_beta   75.80200000
_cell_angle_gamma   88.30900000
_symmetry_Int_Tables_number   1
_chemical_formula_structural   PrH13C25(NO3)2
_chemical_formula_sum   'Pr2 H26 C50 N4 O12'
_cell_volume   2127.37681589
_cell_formula_units_Z   2
loop_
 _symmetry_equiv_pos_site_id
 _symmetry_equiv_pos_as_xyz
  1  'x, y, z'
loop_
 _atom_site_type_symbol
 _atom_site_label
 _atom_site_symmetry_multiplicity
 _atom_site_fract_x
 _atom_site_fract_y
 _atom_site_fract_z
 _atom_site_occupancy
  Pr  Pr0  1  0.29460000  0.93870000  0.55327000  1
  Pr  Pr1  1  0.70540000  0.06130000  0.44673000  1
  H  H2  1  0.00240000  0.50660000  0.92810000  1
  H  H3  1  0.02820000  0.21070000  0.25490000  1
  H  H4  1  0.06870000  0.23780000  0.75970000  1
  H  H5  1  0.07100000  0.40330000  0.29460000  1
  H  H6  1  0.08880000  0.45440000  0.69080000  1
  H  H7  1  0.12760000  0.10950000  0.34840000  1
  H  H8  1  0.19460000  0.15210000  0.65320000  1
  H  H9  1  0.31510000  0.19940000  0.04560000  1
  H  H10  1  0.32050000  0.21400000  0.89680000  1
  H  H11  1  0.42660000  0.31570000  0.14210000  1
  H  H12  1  0.43400000  0.38150000  0.75330000  1
  H  H13  1  0.43890000  0.70770000  0.35030000  1
  H  H14  1  0.47720000  0.77750000  0.75840000  1
  H  H15  1  0.52280000  0.22250000  0.24160000  1
  H  H16  1  0.56110000  0.29230000  0.64970000  1
  H  H17  1  0.56600000  0.61850000  0.24670000  1
  H  H18  1  0.57340000  0.68430000  0.85790000  1
  H  H19  1  0.67950000  0.78600000  0.10320000  1
  H  H20  1  0.68490000  0.80060000  0.95440000  1
  H  H21  1  0.80540000  0.84790000  0.34680000  1
  H  H22  1  0.87240000  0.89050000  0.65160000  1
  H  H23  1  0.91120000  0.54560000  0.30920000  1
  H  H24  1  0.92900000  0.59670000  0.70540000  1
  H  H25  1  0.93130000  0.76220000  0.24030000  1
  H  H26  1  0.97180000  0.78930000  0.74510000  1
  H  H27  1  0.99760000  0.49340000  0.07190000  1
  C  C28  1  0.00050000  0.95290000  0.48000000  1
  C  C29  1  0.03620000  0.43960000  0.25160000  1
  C  C30  1  0.05000000  0.48250000  0.74060000  1
  C  C31  1  0.06690000  0.42040000  0.16630000  1
  C  C32  1  0.07350000  0.44900000  0.82090000  1
  C  C33  1  0.12940000  0.21350000  0.25140000  1
  C  C34  1  0.15290000  0.34440000  0.13280000  1
  C  C35  1  0.16100000  0.36970000  0.83890000  1
  C  C36  1  0.16960000  0.24960000  0.73740000  1
  C  C37  1  0.18300000  0.32690000  0.05020000  1
  C  C38  1  0.18670000  0.33970000  0.91710000  1
  C  C39  1  0.18900000  0.15320000  0.30750000  1
  C  C40  1  0.21650000  0.27720000  0.19100000  1
  C  C41  1  0.23680000  0.31710000  0.76880000  1
  C  C42  1  0.24450000  0.19790000  0.67390000  1
  C  C43  1  0.26880000  0.24810000  0.01620000  1
  C  C44  1  0.27150000  0.25600000  0.93530000  1
  C  C45  1  0.33350000  0.15560000  0.30470000  1
  C  C46  1  0.36380000  0.27630000  0.18590000  1
  C  C47  1  0.38470000  0.33390000  0.73420000  1
  C  C48  1  0.39110000  0.21330000  0.64100000  1
  C  C49  1  0.39560000  0.09440000  0.36920000  1
  C  C50  1  0.42210000  0.21870000  0.24380000  1
  C  C51  1  0.45990000  0.28130000  0.67170000  1
  C  C52  1  0.47940000  0.15720000  0.57600000  1
  C  C53  1  0.52060000  0.84280000  0.42400000  1
  C  C54  1  0.54010000  0.71870000  0.32830000  1
  C  C55  1  0.57790000  0.78130000  0.75620000  1
  C  C56  1  0.60440000  0.90560000  0.63080000  1
  C  C57  1  0.60890000  0.78670000  0.35900000  1
  C  C58  1  0.61530000  0.66610000  0.26580000  1
  C  C59  1  0.63620000  0.72370000  0.81410000  1
  C  C60  1  0.66650000  0.84440000  0.69530000  1
  C  C61  1  0.72850000  0.74400000  0.06470000  1
  C  C62  1  0.73120000  0.75190000  0.98380000  1
  C  C63  1  0.75550000  0.80210000  0.32610000  1
  C  C64  1  0.76320000  0.68290000  0.23120000  1
  C  C65  1  0.78350000  0.72280000  0.80900000  1
  C  C66  1  0.81100000  0.84680000  0.69250000  1
  C  C67  1  0.81330000  0.66030000  0.08290000  1
  C  C68  1  0.81700000  0.67310000  0.94980000  1
  C  C69  1  0.83040000  0.75040000  0.26260000  1
  C  C70  1  0.83900000  0.63030000  0.16110000  1
  C  C71  1  0.84710000  0.65560000  0.86720000  1
  C  C72  1  0.87060000  0.78650000  0.74860000  1
  C  C73  1  0.92650000  0.55100000  0.17910000  1
  C  C74  1  0.93310000  0.57960000  0.83370000  1
  C  C75  1  0.95000000  0.51750000  0.25940000  1
  C  C76  1  0.96380000  0.56040000  0.74840000  1
  C  C77  1  0.99950000  0.04710000  0.52000000  1
  N  N78  1  0.00290000  0.51060000  0.87520000  1
  N  N79  1  0.13370000  0.38180000  0.98810000  1
  N  N80  1  0.86630000  0.61820000  0.01190000  1
  N  N81  1  0.99710000  0.48940000  0.12480000  1
  O  O82  1  0.08530000  0.05360000  0.56480000  1
  O  O83  1  0.08790000  0.88860000  0.49730000  1
  O  O84  1  0.31450000  0.03070000  0.41610000  1
  O  O85  1  0.39410000  0.81650000  0.45680000  1
  O  O86  1  0.42240000  0.08550000  0.55500000  1
  O  O87  1  0.47530000  0.88610000  0.62930000  1
  O  O88  1  0.52470000  0.11390000  0.37070000  1
  O  O89  1  0.57760000  0.91450000  0.44500000  1
  O  O90  1  0.60590000  0.18350000  0.54320000  1
  O  O91  1  0.68550000  0.96930000  0.58390000  1
  O  O92  1  0.91210000  0.11140000  0.50270000  1
  O  O93  1  0.91470000  0.94640000  0.43520000  1
