# generated using pymatgen
data_Yb2U3H6(C5O4)6
_symmetry_space_group_name_H-M   'P 1'
_cell_length_a   10.50900000
_cell_length_b   11.48000000
_cell_length_c   13.42600000
_cell_angle_alpha   69.13700000
_cell_angle_beta   78.67100000
_cell_angle_gamma   63.56400000
_symmetry_Int_Tables_number   1
_chemical_formula_structural   Yb2U3H6(C5O4)6
_chemical_formula_sum   'Yb2 U3 H6 C30 O24'
_cell_volume   1353.89747275
_cell_formula_units_Z   1
loop_
 _symmetry_equiv_pos_site_id
 _symmetry_equiv_pos_as_xyz
  1  'x, y, z'
loop_
 _atom_site_type_symbol
 _atom_site_label
 _atom_site_symmetry_multiplicity
 _atom_site_fract_x
 _atom_site_fract_y
 _atom_site_fract_z
 _atom_site_occupancy
  Yb  Yb0  1  0.40221000  0.76883000  0.24926000  1
  Yb  Yb1  1  0.59779000  0.23117000  0.75074000  1
  U  U2  1  0.00000000  0.50000000  0.50000000  1
  U  U3  1  0.37767000  0.28600000  0.16397000  1
  U  U4  1  0.62233000  0.71400000  0.83603000  1
  H  H5  1  0.09440000  0.35910000  0.95880000  1
  H  H6  1  0.15740000  0.11210000  0.73080000  1
  H  H7  1  0.28550000  0.99830000  0.58670000  1
  H  H8  1  0.71450000  0.00170000  0.41330000  1
  H  H9  1  0.84260000  0.88790000  0.26920000  1
  H  H10  1  0.90560000  0.64090000  0.04120000  1
  C  C11  1  0.00300000  0.65740000  0.14770000  1
  C  C12  1  0.01230000  0.26680000  0.78720000  1
  C  C13  1  0.10780000  0.70710000  0.27540000  1
  C  C14  1  0.10960000  0.31300000  0.91000000  1
  C  C15  1  0.13760000  0.53750000  0.14260000  1
  C  C16  1  0.14670000  0.16500000  0.77320000  1
  C  C17  1  0.24570000  0.21490000  0.89580000  1
  C  C18  1  0.25620000  0.25250000  0.49390000  1
  C  C19  1  0.26560000  0.14270000  0.82330000  1
  C  C20  1  0.36000000  0.19460000  0.95660000  1
  C  C21  1  0.37130000  0.99810000  0.55200000  1
  C  C22  1  0.38350000  0.12380000  0.49510000  1
  C  C23  1  0.40750000  0.04200000  0.79500000  1
  C  C24  1  0.46550000  0.74920000  0.62010000  1
  C  C25  1  0.48620000  0.87680000  0.55560000  1
  C  C26  1  0.51380000  0.12320000  0.44440000  1
  C  C27  1  0.53450000  0.25080000  0.37990000  1
  C  C28  1  0.59250000  0.95800000  0.20500000  1
  C  C29  1  0.61650000  0.87620000  0.50490000  1
  C  C30  1  0.62870000  0.00190000  0.44800000  1
  C  C31  1  0.64000000  0.80540000  0.04340000  1
  C  C32  1  0.73440000  0.85730000  0.17670000  1
  C  C33  1  0.74380000  0.74750000  0.50610000  1
  C  C34  1  0.75430000  0.78510000  0.10420000  1
  C  C35  1  0.85330000  0.83500000  0.22680000  1
  C  C36  1  0.86240000  0.46250000  0.85740000  1
  C  C37  1  0.89040000  0.68700000  0.09000000  1
  C  C38  1  0.89220000  0.29290000  0.72460000  1
  C  C39  1  0.98770000  0.73320000  0.21280000  1
  C  C40  1  0.99700000  0.34260000  0.85230000  1
  O  O41  1  0.11460000  0.63750000  0.37380000  1
  O  O42  1  0.13660000  0.25170000  0.51860000  1
  O  O43  1  0.14770000  0.46560000  0.08600000  1
  O  O44  1  0.18790000  0.76580000  0.22740000  1
  O  O45  1  0.23860000  0.50290000  0.20060000  1
  O  O46  1  0.26530000  0.36590000  0.46660000  1
  O  O47  1  0.32840000  0.19510000  0.05120000  1
  O  O48  1  0.40950000  0.70260000  0.57920000  1
  O  O49  1  0.41530000  0.92190000  0.81700000  1
  O  O50  1  0.48270000  0.17990000  0.91540000  1
  O  O51  1  0.49540000  0.92080000  0.24470000  1
  O  O52  1  0.49840000  0.69440000  0.71900000  1
  O  O53  1  0.50160000  0.30560000  0.28100000  1
  O  O54  1  0.50460000  0.07920000  0.75530000  1
  O  O55  1  0.51730000  0.82010000  0.08460000  1
  O  O56  1  0.58470000  0.07810000  0.18300000  1
  O  O57  1  0.59050000  0.29740000  0.42080000  1
  O  O58  1  0.67160000  0.80490000  0.94880000  1
  O  O59  1  0.73470000  0.63410000  0.53340000  1
  O  O60  1  0.76140000  0.49710000  0.79940000  1
  O  O61  1  0.81210000  0.23420000  0.77260000  1
  O  O62  1  0.85230000  0.53440000  0.91400000  1
  O  O63  1  0.86340000  0.74830000  0.48140000  1
  O  O64  1  0.88540000  0.36250000  0.62620000  1
