# generated using pymatgen
data_Cd4Ni4H161C168N8ClO24
_symmetry_space_group_name_H-M   'P 1'
_cell_length_a   11.85500000
_cell_length_b   23.23500000
_cell_length_c   36.74900000
_cell_angle_alpha   95.26000000
_cell_angle_beta   90.00000000
_cell_angle_gamma   90.00000000
_symmetry_Int_Tables_number   1
_chemical_formula_structural   Cd4Ni4H161C168N8ClO24
_chemical_formula_sum   'Cd8 Ni8 H322 C336 N16 Cl2 O48'
_cell_volume   10079.91941800
_cell_formula_units_Z   2
loop_
 _symmetry_equiv_pos_site_id
 _symmetry_equiv_pos_as_xyz
  1  'x, y, z'
loop_
 _atom_site_type_symbol
 _atom_site_label
 _atom_site_symmetry_multiplicity
 _atom_site_fract_x
 _atom_site_fract_y
 _atom_site_fract_z
 _atom_site_occupancy
  Cd  Cd0  1  0.01621000  0.86517000  0.28335000  1
  Cd  Cd1  1  0.28162000  0.05657000  0.77023000  1
  Cd  Cd2  1  0.33870000  0.75843000  0.25319000  1
  Cd  Cd3  1  0.36817000  0.59584000  0.22548000  1
  Cd  Cd4  1  0.51621000  0.13483000  0.71665000  1
  Cd  Cd5  1  0.78162000  0.94343000  0.22977000  1
  Cd  Cd6  1  0.83870000  0.24157000  0.74681000  1
  Cd  Cd7  1  0.86817000  0.40416000  0.77452000  1
  Ni  Ni8  1  0.00220000  0.41590000  0.51367000  1
  Ni  Ni9  1  0.29172000  0.57815000  0.02446000  1
  Ni  Ni10  1  0.31345000  0.08003000  0.97485000  1
  Ni  Ni11  1  0.45881000  0.08605000  0.51801000  1
  Ni  Ni12  1  0.50220000  0.58410000  0.48633000  1
  Ni  Ni13  1  0.79172000  0.42185000  0.97554000  1
  Ni  Ni14  1  0.81345000  0.91997000  0.02515000  1
  Ni  Ni15  1  0.95881000  0.91395000  0.48199000  1
  H  H16  1  0.00460000  0.23930000  0.52260000  1
  H  H17  1  0.00480000  0.47140000  0.18020000  1
  H  H18  1  0.00680000  0.65800000  0.41460000  1
  H  H19  1  0.00990000  0.30900000  0.42900000  1
  H  H20  1  0.01240000  0.02830000  0.05340000  1
  H  H21  1  0.01280000  0.38150000  0.95640000  1
  H  H22  1  0.01300000  0.63490000  0.99930000  1
  H  H23  1  0.01620000  0.87630000  0.05360000  1
  H  H24  1  0.02140000  0.71900000  0.48860000  1
  H  H25  1  0.02360000  0.12690000  0.99980000  1
  H  H26  1  0.02430000  0.86440000  0.64860000  1
  H  H27  1  0.02950000  0.34120000  0.33740000  1
  H  H28  1  0.03120000  0.01150000  0.99430000  1
  H  H29  1  0.03530000  0.26270000  0.48520000  1
  H  H30  1  0.03540000  0.53850000  0.07140000  1
  H  H31  1  0.03910000  0.56550000  0.43230000  1
  H  H32  1  0.04120000  0.81970000  0.59040000  1
  H  H33  1  0.04180000  0.55390000  0.63510000  1
  H  H34  1  0.04630000  0.74880000  0.97650000  1
  H  H35  1  0.04780000  0.74470000  0.52860000  1
  H  H36  1  0.04890000  0.05120000  0.38680000  1
  H  H37  1  0.05310000  0.26230000  0.63850000  1
  H  H38  1  0.05390000  0.24680000  0.03270000  1
  H  H39  1  0.05810000  0.95090000  0.39500000  1
  H  H40  1  0.05990000  0.01410000  0.93250000  1
  H  H41  1  0.06790000  0.21800000  0.82620000  1
  H  H42  1  0.06920000  0.14340000  0.49880000  1
  H  H43  1  0.07600000  0.29480000  0.39240000  1
  H  H44  1  0.08040000  0.46920000  0.87040000  1
  H  H45  1  0.08170000  0.95110000  0.64190000  1
  H  H46  1  0.08330000  0.29340000  0.52170000  1
  H  H47  1  0.08470000  0.24840000  0.57190000  1
  H  H48  1  0.08640000  0.65040000  0.91090000  1
  H  H49  1  0.08820000  0.02040000  0.86980000  1
  H  H50  1  0.09330000  0.38210000  0.02820000  1
  H  H51  1  0.09340000  0.77550000  0.49540000  1
  H  H52  1  0.09390000  0.42810000  0.35160000  1
  H  H53  1  0.09800000  0.62440000  0.50240000  1
  H  H54  1  0.09810000  0.75790000  0.18120000  1
  H  H55  1  0.09920000  0.34010000  0.08220000  1
  H  H56  1  0.10110000  0.16720000  0.46160000  1
  H  H57  1  0.10320000  0.47040000  0.60210000  1
  H  H58  1  0.10800000  0.58470000  0.89940000  1
  H  H59  1  0.11130000  0.77860000  0.01030000  1
  H  H60  1  0.11310000  0.53710000  0.13190000  1
  H  H61  1  0.11480000  0.65280000  0.54250000  1
  H  H62  1  0.11710000  0.18470000  0.09010000  1
  H  H63  1  0.11740000  0.27200000  0.00030000  1
  H  H64  1  0.12550000  0.77120000  0.38520000  1
  H  H65  1  0.12990000  0.61000000  0.93980000  1
  H  H66  1  0.13540000  0.12160000  0.10080000  1
  H  H67  1  0.14180000  0.74880000  0.44400000  1
  H  H68  1  0.14440000  0.01760000  0.44640000  1
  H  H69  1  0.14620000  0.03470000  0.50660000  1
  H  H70  1  0.14640000  0.71660000  0.99370000  1
  H  H71  1  0.15170000  0.17550000  0.67430000  1
  H  H72  1  0.15320000  0.21200000  0.01290000  1
  H  H73  1  0.15630000  0.82420000  0.07250000  1
  H  H74  1  0.15820000  0.13610000  0.06070000  1
  H  H75  1  0.16000000  0.81190000  0.90980000  1
  H  H76  1  0.17350000  0.86830000  0.96500000  1
  H  H77  1  0.18120000  0.87380000  0.46510000  1
  H  H78  1  0.18170000  0.36460000  0.56180000  1
  H  H79  1  0.18870000  0.51120000  0.24440000  1
  H  H80  1  0.18880000  0.48380000  0.31330000  1
  H  H81  1  0.18910000  0.14970000  0.85240000  1
  H  H82  1  0.19040000  0.34320000  0.95310000  1
  H  H83  1  0.19150000  0.13460000  0.48310000  1
  H  H84  1  0.19920000  0.68070000  0.15050000  1
  H  H85  1  0.19940000  0.01130000  0.07260000  1
  H  H86  1  0.20410000  0.04610000  0.56730000  1
  H  H87  1  0.20630000  0.51890000  0.55200000  1
  H  H88  1  0.20670000  0.67660000  0.86330000  1
  H  H89  1  0.21470000  0.00130000  0.68060000  1
  H  H90  1  0.21570000  0.62100000  0.52160000  1
  H  H91  1  0.22350000  0.84620000  0.85570000  1
  H  H92  1  0.22640000  0.61090000  0.85120000  1
  H  H93  1  0.22680000  0.44860000  0.01330000  1
  H  H94  1  0.23010000  0.25570000  0.46230000  1
  H  H95  1  0.23040000  0.73930000  0.55510000  1
  H  H96  1  0.23560000  0.50700000  0.49060000  1
  H  H97  1  0.23800000  0.22070000  0.13900000  1
  H  H98  1  0.23940000  0.94490000  0.37170000  1
  H  H99  1  0.24130000  0.36420000  0.12380000  1
  H  H100  1  0.24590000  0.71650000  0.92410000  1
  H  H101  1  0.25260000  0.15720000  0.14940000  1
  H  H102  1  0.25590000  0.42590000  0.86620000  1
  H  H103  1  0.25860000  0.13120000  0.39420000  1
  H  H104  1  0.25880000  0.52200000  0.42990000  1
  H  H105  1  0.26000000  0.88800000  0.53640000  1
  H  H106  1  0.26820000  0.06460000  0.62640000  1
  H  H107  1  0.27300000  0.85280000  0.59320000  1
  H  H108  1  0.27540000  0.28390000  0.49990000  1
  H  H109  1  0.28190000  0.73320000  0.33200000  1
  H  H110  1  0.28310000  0.95170000  0.96900000  1
  H  H111  1  0.28330000  0.24760000  0.07970000  1
  H  H112  1  0.28850000  0.06530000  0.38750000  1
  H  H113  1  0.28870000  0.07330000  0.87730000  1
  H  H114  1  0.28920000  0.65070000  0.60750000  1
  H  H115  1  0.29040000  0.76880000  0.52370000  1
  H  H116  1  0.29200000  0.67730000  0.95330000  1
  H  H117  1  0.29640000  0.09690000  0.42700000  1
  H  H118  1  0.30480000  0.53790000  0.37020000  1
  H  H119  1  0.30620000  0.96230000  0.11090000  1
  H  H120  1  0.30840000  0.18480000  0.63920000  1
  H  H121  1  0.31330000  0.61120000  0.12280000  1
  H  H122  1  0.31720000  0.36680000  0.90950000  1
  H  H123  1  0.31910000  0.58540000  0.60980000  1
  H  H124  1  0.32030000  0.86060000  0.10060000  1
  H  H125  1  0.32210000  0.22380000  0.48370000  1
  H  H126  1  0.32280000  0.20160000  0.04840000  1
  H  H127  1  0.32450000  0.93250000  0.86070000  1
  H  H128  1  0.32610000  0.30620000  0.57440000  1
  H  H129  1  0.32980000  0.65220000  0.85920000  1
  H  H130  1  0.33260000  0.70870000  0.53440000  1
  H  H131  1  0.33730000  0.61380000  0.57310000  1
  H  H132  1  0.34490000  0.25750000  0.95240000  1
  H  H133  1  0.35030000  0.33050000  0.40840000  1
  H  H134  1  0.35110000  0.77380000  0.03740000  1
  H  H135  1  0.35250000  0.66940000  0.37220000  1
  H  H136  1  0.35830000  0.37980000  0.46480000  1
  H  H137  1  0.35910000  0.19490000  0.14290000  1
  H  H138  1  0.36210000  0.83670000  0.46400000  1
  H  H139  1  0.36460000  0.23660000  0.99120000  1
  H  H140  1  0.36970000  0.69290000  0.92110000  1
  H  H141  1  0.37090000  0.74680000  0.99730000  1
  H  H142  1  0.37820000  0.42980000  0.10990000  1
  H  H143  1  0.38690000  0.95570000  0.51910000  1
  H  H144  1  0.39160000  0.49630000  0.56170000  1
  H  H145  1  0.39160000  0.56660000  0.86230000  1
  H  H146  1  0.39740000  0.10010000  0.13860000  1
  H  H147  1  0.39860000  0.15580000  0.34910000  1
  H  H148  1  0.39940000  0.35620000  0.97910000  1
  H  H149  1  0.39990000  0.52640000  0.10640000  1
  H  H150  1  0.40470000  0.22110000  0.08060000  1
  H  H151  1  0.40610000  0.68210000  0.65960000  1
  H  H152  1  0.40830000  0.86540000  0.02000000  1
  H  H153  1  0.41440000  0.00790000  0.89020000  1
  H  H154  1  0.41530000  0.32910000  0.01630000  1
  H  H155  1  0.41650000  0.20220000  0.40750000  1
  H  H156  1  0.41940000  0.90670000  0.37120000  1
  H  H157  1  0.42620000  0.83730000  0.98000000  1
  H  H158  1  0.42690000  0.61640000  0.66400000  1
  H  H159  1  0.42720000  0.20590000  0.95720000  1
  H  H160  1  0.42770000  0.87950000  0.63000000  1
  H  H161  1  0.42860000  0.71930000  0.02990000  1
  H  H162  1  0.42900000  0.09030000  0.34090000  1
  H  H163  1  0.43650000  0.36100000  0.35800000  1
  H  H164  1  0.44580000  0.18200000  0.85520000  1
  H  H165  1  0.45090000  0.72600000  0.60420000  1
  H  H166  1  0.45270000  0.46860000  0.46970000  1
  H  H167  1  0.45510000  0.16880000  0.44050000  1
  H  H168  1  0.46490000  0.13230000  0.61540000  1
  H  H169  1  0.46760000  0.59370000  0.38830000  1
  H  H170  1  0.47130000  0.23890000  0.90680000  1
  H  H171  1  0.47240000  0.69750000  0.12730000  1
  H  H172  1  0.47790000  0.75410000  0.08280000  1
  H  H173  1  0.48270000  0.46320000  0.98910000  1
  H  H174  1  0.48350000  0.46910000  0.05150000  1
  H  H175  1  0.48930000  0.85860000  0.41850000  1
  H  H176  1  0.49570000  0.05750000  0.18310000  1
  H  H177  1  0.50460000  0.76070000  0.47740000  1
  H  H178  1  0.50480000  0.52860000  0.81980000  1
  H  H179  1  0.50680000  0.34200000  0.58540000  1
  H  H180  1  0.50990000  0.69100000  0.57100000  1
  H  H181  1  0.51240000  0.97170000  0.94660000  1
  H  H182  1  0.51280000  0.61850000  0.04360000  1
  H  H183  1  0.51300000  0.36510000  0.00070000  1
  H  H184  1  0.51620000  0.12370000  0.94640000  1
  H  H185  1  0.52140000  0.28100000  0.51140000  1
  H  H186  1  0.52360000  0.87310000  0.00020000  1
  H  H187  1  0.52430000  0.13560000  0.35140000  1
  H  H188  1  0.52950000  0.65880000  0.66260000  1
  H  H189  1  0.53120000  0.98850000  0.00570000  1
  H  H190  1  0.53530000  0.73730000  0.51480000  1
  H  H191  1  0.53540000  0.46150000  0.92860000  1
  H  H192  1  0.53910000  0.43450000  0.56770000  1
  H  H193  1  0.54120000  0.18030000  0.40960000  1
  H  H194  1  0.54180000  0.44610000  0.36490000  1
  H  H195  1  0.54630000  0.25120000  0.02350000  1
  H  H196  1  0.54780000  0.25530000  0.47140000  1
  H  H197  1  0.54890000  0.94880000  0.61320000  1
  H  H198  1  0.55310000  0.73770000  0.36150000  1
  H  H199  1  0.55390000  0.75320000  0.96730000  1
  H  H200  1  0.55810000  0.04910000  0.60500000  1
  H  H201  1  0.55990000  0.98590000  0.06750000  1
  H  H202  1  0.56790000  0.78200000  0.17380000  1
  H  H203  1  0.56920000  0.85660000  0.50120000  1
  H  H204  1  0.57600000  0.70520000  0.60760000  1
  H  H205  1  0.58040000  0.53080000  0.12960000  1
  H  H206  1  0.58170000  0.04890000  0.35810000  1
  H  H207  1  0.58330000  0.70660000  0.47830000  1
  H  H208  1  0.58470000  0.75160000  0.42810000  1
  H  H209  1  0.58640000  0.34960000  0.08910000  1
  H  H210  1  0.58820000  0.97960000  0.13020000  1
  H  H211  1  0.59330000  0.61790000  0.97180000  1
  H  H212  1  0.59340000  0.22450000  0.50460000  1
  H  H213  1  0.59390000  0.57190000  0.64840000  1
  H  H214  1  0.59800000  0.37560000  0.49760000  1
  H  H215  1  0.59810000  0.24210000  0.81880000  1
  H  H216  1  0.59920000  0.65990000  0.91780000  1
  H  H217  1  0.60110000  0.83280000  0.53840000  1
  H  H218  1  0.60320000  0.52960000  0.39790000  1
  H  H219  1  0.60800000  0.41530000  0.10060000  1
  H  H220  1  0.61130000  0.22140000  0.98970000  1
  H  H221  1  0.61310000  0.46290000  0.86810000  1
  H  H222  1  0.61480000  0.34720000  0.45750000  1
  H  H223  1  0.61710000  0.81530000  0.90990000  1
  H  H224  1  0.61740000  0.72800000  0.99970000  1
  H  H225  1  0.62550000  0.22880000  0.61480000  1
  H  H226  1  0.62990000  0.39000000  0.06020000  1
  H  H227  1  0.63540000  0.87840000  0.89920000  1
  H  H228  1  0.64180000  0.25120000  0.55600000  1
  H  H229  1  0.64440000  0.98240000  0.55360000  1
  H  H230  1  0.64620000  0.96530000  0.49340000  1
  H  H231  1  0.64640000  0.28340000  0.00630000  1
  H  H232  1  0.65170000  0.82450000  0.32570000  1
  H  H233  1  0.65320000  0.78800000  0.98710000  1
  H  H234  1  0.65630000  0.17580000  0.92750000  1
  H  H235  1  0.65820000  0.86390000  0.93930000  1
  H  H236  1  0.66000000  0.18810000  0.09020000  1
  H  H237  1  0.67350000  0.13170000  0.03500000  1
  H  H238  1  0.68120000  0.12620000  0.53490000  1
  H  H239  1  0.68170000  0.63540000  0.43820000  1
  H  H240  1  0.68870000  0.48880000  0.75560000  1
  H  H241  1  0.68880000  0.51620000  0.68670000  1
  H  H242  1  0.68910000  0.85030000  0.14760000  1
  H  H243  1  0.69040000  0.65680000  0.04690000  1
  H  H244  1  0.69150000  0.86540000  0.51690000  1
  H  H245  1  0.69920000  0.31930000  0.84950000  1
  H  H246  1  0.69940000  0.98870000  0.92740000  1
  H  H247  1  0.70410000  0.95390000  0.43270000  1
  H  H248  1  0.70630000  0.48110000  0.44800000  1
  H  H249  1  0.70670000  0.32340000  0.13670000  1
  H  H250  1  0.71470000  0.99870000  0.31940000  1
  H  H251  1  0.71570000  0.37900000  0.47840000  1
  H  H252  1  0.72350000  0.15380000  0.14430000  1
  H  H253  1  0.72640000  0.38910000  0.14880000  1
  H  H254  1  0.72680000  0.55140000  0.98670000  1
  H  H255  1  0.73010000  0.74430000  0.53770000  1
  H  H256  1  0.73040000  0.26070000  0.44490000  1
  H  H257  1  0.73560000  0.49300000  0.50940000  1
  H  H258  1  0.73800000  0.77930000  0.86100000  1
  H  H259  1  0.73940000  0.05510000  0.62830000  1
  H  H260  1  0.74130000  0.63580000  0.87620000  1
  H  H261  1  0.74590000  0.28350000  0.07590000  1
  H  H262  1  0.75260000  0.84280000  0.85060000  1
  H  H263  1  0.75590000  0.57410000  0.13380000  1
  H  H264  1  0.75860000  0.86880000  0.60580000  1
  H  H265  1  0.75880000  0.47800000  0.57010000  1
  H  H266  1  0.76000000  0.11200000  0.46360000  1
  H  H267  1  0.76820000  0.93540000  0.37360000  1
  H  H268  1  0.77300000  0.14720000  0.40680000  1
  H  H269  1  0.77540000  0.71610000  0.50010000  1
  H  H270  1  0.78190000  0.26680000  0.66800000  1
  H  H271  1  0.78310000  0.04830000  0.03100000  1
  H  H272  1  0.78330000  0.75240000  0.92030000  1
  H  H273  1  0.78850000  0.93470000  0.61250000  1
  H  H274  1  0.78870000  0.92670000  0.12270000  1
  H  H275  1  0.78920000  0.34930000  0.39250000  1
  H  H276  1  0.79040000  0.23120000  0.47630000  1
  H  H277  1  0.79200000  0.32270000  0.04670000  1
  H  H278  1  0.79640000  0.90310000  0.57300000  1
  H  H279  1  0.80480000  0.46210000  0.62980000  1
  H  H280  1  0.80620000  0.03770000  0.88910000  1
  H  H281  1  0.80840000  0.81520000  0.36080000  1
  H  H282  1  0.81330000  0.38880000  0.87720000  1
  H  H283  1  0.81720000  0.63320000  0.09050000  1
  H  H284  1  0.81910000  0.41460000  0.39020000  1
  H  H285  1  0.82030000  0.13940000  0.89940000  1
  H  H286  1  0.82210000  0.77620000  0.51630000  1
  H  H287  1  0.82280000  0.79840000  0.95160000  1
  H  H288  1  0.82450000  0.06750000  0.13930000  1
  H  H289  1  0.82610000  0.69380000  0.42560000  1
  H  H290  1  0.82980000  0.34780000  0.14080000  1
  H  H291  1  0.83260000  0.29130000  0.46560000  1
  H  H292  1  0.83730000  0.38620000  0.42690000  1
  H  H293  1  0.84490000  0.74250000  0.04760000  1
  H  H294  1  0.85030000  0.66950000  0.59160000  1
  H  H295  1  0.85110000  0.22620000  0.96260000  1
  H  H296  1  0.85250000  0.33060000  0.62780000  1
  H  H297  1  0.85830000  0.62020000  0.53520000  1
  H  H298  1  0.85910000  0.80510000  0.85710000  1
  H  H299  1  0.86210000  0.16330000  0.53600000  1
  H  H300  1  0.86460000  0.76340000  0.00880000  1
  H  H301  1  0.86970000  0.30710000  0.07890000  1
  H  H302  1  0.87090000  0.25320000  0.00270000  1
  H  H303  1  0.87820000  0.57020000  0.89010000  1
  H  H304  1  0.88690000  0.04430000  0.48090000  1
  H  H305  1  0.89160000  0.43340000  0.13770000  1
  H  H306  1  0.89160000  0.50370000  0.43830000  1
  H  H307  1  0.89740000  0.89990000  0.86140000  1
  H  H308  1  0.89860000  0.84420000  0.65090000  1
  H  H309  1  0.89940000  0.64380000  0.02090000  1
  H  H310  1  0.89990000  0.47360000  0.89360000  1
  H  H311  1  0.90470000  0.77890000  0.91940000  1
  H  H312  1  0.90610000  0.31790000  0.34040000  1
  H  H313  1  0.90830000  0.13460000  0.98000000  1
  H  H314  1  0.91440000  0.99210000  0.10980000  1
  H  H315  1  0.91530000  0.67090000  0.98370000  1
  H  H316  1  0.91650000  0.79780000  0.59250000  1
  H  H317  1  0.91940000  0.09330000  0.62880000  1
  H  H318  1  0.92620000  0.16270000  0.02000000  1
  H  H319  1  0.92690000  0.38360000  0.33600000  1
  H  H320  1  0.92720000  0.79410000  0.04280000  1
  H  H321  1  0.92770000  0.12050000  0.37000000  1
  H  H322  1  0.92860000  0.28070000  0.97010000  1
  H  H323  1  0.92900000  0.90970000  0.65910000  1
  H  H324  1  0.93650000  0.63900000  0.64200000  1
  H  H325  1  0.94580000  0.81800000  0.14480000  1
  H  H326  1  0.95090000  0.27400000  0.39580000  1
  H  H327  1  0.95270000  0.53140000  0.53030000  1
  H  H328  1  0.95510000  0.83120000  0.55950000  1
  H  H329  1  0.96490000  0.86770000  0.38460000  1
  H  H330  1  0.96760000  0.40630000  0.61170000  1
  H  H331  1  0.97130000  0.76110000  0.09320000  1
  H  H332  1  0.97240000  0.30250000  0.87270000  1
  H  H333  1  0.97790000  0.24590000  0.91720000  1
  H  H334  1  0.98270000  0.53680000  0.01090000  1
  H  H335  1  0.98350000  0.53090000  0.94850000  1
  H  H336  1  0.98930000  0.14140000  0.58150000  1
  H  H337  1  0.99570000  0.94250000  0.81690000  1
  C  C338  1  0.00350000  0.30440000  0.40290000  1
  C  C339  1  0.00460000  0.56680000  0.61510000  1
  C  C340  1  0.00550000  0.20650000  0.98220000  1
  C  C341  1  0.00770000  0.98440000  0.92780000  1
  C  C342  1  0.01010000  0.93190000  0.59400000  1
  C  C343  1  0.01100000  0.94490000  0.55650000  1
  C  C344  1  0.01180000  0.53540000  0.58150000  1
  C  C345  1  0.01680000  0.21880000  0.70050000  1
  C  C346  1  0.02920000  0.43120000  0.91500000  1
  C  C347  1  0.03000000  0.73460000  0.09360000  1
  C  C348  1  0.03320000  0.21740000  0.91470000  1
  C  C349  1  0.04260000  0.40940000  0.40120000  1
  C  C350  1  0.04500000  0.97110000  0.82660000  1
  C  C351  1  0.04500000  0.98790000  0.86250000  1
  C  C352  1  0.04780000  0.23470000  0.84930000  1
  C  C353  1  0.05840000  0.76620000  0.16050000  1
  C  C354  1  0.05880000  0.70460000  0.06050000  1
  C  C355  1  0.05910000  0.51050000  0.13790000  1
  C  C356  1  0.06070000  0.49510000  0.17200000  1
  C  C357  1  0.06230000  0.42530000  0.43840000  1
  C  C358  1  0.06260000  0.39220000  0.93860000  1
  C  C359  1  0.06270000  0.25680000  0.50910000  1
  C  C360  1  0.06490000  0.18990000  0.94540000  1
  C  C361  1  0.07090000  0.99830000  0.44620000  1
  C  C362  1  0.07480000  0.47820000  0.57790000  1
  C  C363  1  0.07500000  0.95490000  0.06700000  1
  C  C364  1  0.07670000  0.73880000  0.50410000  1
  C  C365  1  0.07730000  0.94170000  0.41980000  1
  C  C366  1  0.07770000  0.89610000  0.06430000  1
  C  C367  1  0.08080000  0.72900000  0.12810000  1
  C  C368  1  0.08100000  0.96130000  0.61800000  1
  C  C369  1  0.08240000  0.20350000  0.88010000  1
  C  C370  1  0.08400000  0.99110000  0.54740000  1
  C  C371  1  0.08410000  0.74240000  0.99890000  1
  C  C372  1  0.09060000  0.23730000  0.00960000  1
  C  C373  1  0.09870000  0.00420000  0.51080000  1
  C  C374  1  0.09960000  0.20460000  0.67140000  1
  C  C375  1  0.10210000  0.44390000  0.88730000  1
  C  C376  1  0.10330000  0.23200000  0.64060000  1
  C  C377  1  0.10620000  0.43810000  0.37630000  1
  C  C378  1  0.12580000  0.99920000  0.80280000  1
  C  C379  1  0.12820000  0.16040000  0.48540000  1
  C  C380  1  0.13360000  0.61790000  0.91460000  1
  C  C381  1  0.14530000  0.46670000  0.44930000  1
  C  C382  1  0.14710000  0.66160000  0.06170000  1
  C  C383  1  0.14940000  0.22670000  0.57490000  1
  C  C384  1  0.15020000  0.64460000  0.51910000  1
  C  C385  1  0.15120000  0.39220000  0.04470000  1
  C  C386  1  0.15250000  0.51630000  0.19600000  1
  C  C387  1  0.15270000  0.14880000  0.94220000  1
  C  C388  1  0.15380000  0.00650000  0.60950000  1
  C  C389  1  0.15410000  0.01820000  0.57420000  1
  C  C390  1  0.15420000  0.36670000  0.07710000  1
  C  C391  1  0.16000000  0.16070000  0.87550000  1
  C  C392  1  0.16140000  0.79290000  0.31940000  1
  C  C393  1  0.16250000  0.15050000  0.08590000  1
  C  C394  1  0.16410000  0.68670000  0.12860000  1
  C  C395  1  0.16430000  0.21780000  0.50590000  1
  C  C396  1  0.16470000  0.86410000  0.07620000  1
  C  C397  1  0.16900000  0.36880000  0.93630000  1
  C  C398  1  0.17580000  0.47960000  0.55130000  1
  C  C399  1  0.17580000  0.48140000  0.48620000  1
  C  C400  1  0.17850000  0.97430000  0.07760000  1
  C  C401  1  0.18060000  0.21740000  0.61040000  1
  C  C402  1  0.18580000  0.70200000  0.50390000  1
  C  C403  1  0.18660000  0.48040000  0.38590000  1
  C  C404  1  0.18810000  0.74970000  0.37700000  1
  C  C405  1  0.19220000  0.91420000  0.41910000  1
  C  C406  1  0.19570000  0.84760000  0.91060000  1
  C  C407  1  0.19670000  0.65240000  0.09630000  1
  C  C408  1  0.19800000  0.13200000  0.90710000  1
  C  C409  1  0.19940000  0.72200000  0.43910000  1
  C  C410  1  0.20530000  0.49400000  0.42250000  1
  C  C411  1  0.20710000  0.20620000  0.54360000  1
  C  C412  1  0.20750000  0.88040000  0.94420000  1
  C  C413  1  0.20800000  0.41820000  0.88520000  1
  C  C414  1  0.22090000  0.75460000  0.34170000  1
  C  C415  1  0.22910000  0.03450000  0.63570000  1
  C  C416  1  0.22970000  0.88140000  0.44620000  1
  C  C417  1  0.23040000  0.43200000  0.03540000  1
  C  C418  1  0.23570000  0.86680000  0.87830000  1
  C  C419  1  0.23680000  0.69360000  0.46710000  1
  C  C420  1  0.23870000  0.38090000  0.10180000  1
  C  C421  1  0.24020000  0.71460000  0.40300000  1
  C  C422  1  0.24440000  0.38190000  0.91030000  1
  C  C423  1  0.24440000  0.50730000  0.32470000  1
  C  C424  1  0.25180000  0.51170000  0.36000000  1
  C  C425  1  0.25280000  0.63120000  0.90490000  1
  C  C426  1  0.25380000  0.38020000  0.56410000  1
  C  C427  1  0.25400000  0.64380000  0.86630000  1
  C  C428  1  0.25470000  0.94200000  0.09550000  1
  C  C429  1  0.25610000  0.02810000  0.66880000  1
  C  C430  1  0.25650000  0.24810000  0.48610000  1
  C  C431  1  0.26160000  0.88300000  0.09280000  1
  C  C432  1  0.26340000  0.92380000  0.39060000  1
  C  C433  1  0.26750000  0.73260000  0.53190000  1
  C  C434  1  0.26850000  0.43750000  0.55910000  1
  C  C435  1  0.27040000  0.93120000  0.94640000  1
  C  C436  1  0.27090000  0.08530000  0.90140000  1
  C  C437  1  0.28130000  0.18850000  0.61580000  1
  C  C438  1  0.28210000  0.16470000  0.09570000  1
  C  C439  1  0.28280000  0.61310000  0.09960000  1
  C  C440  1  0.28300000  0.18630000  0.13530000  1
  C  C441  1  0.29380000  0.68430000  0.92800000  1
  C  C442  1  0.29550000  0.91880000  0.88180000  1
  C  C443  1  0.30330000  0.17090000  0.54860000  1
  C  C444  1  0.30690000  0.10100000  0.40140000  1
  C  C445  1  0.31410000  0.95130000  0.91490000  1
  C  C446  1  0.31530000  0.44600000  0.06060000  1
  C  C447  1  0.31810000  0.90050000  0.55230000  1
  C  C448  1  0.32000000  0.42030000  0.09340000  1
  C  C449  1  0.32100000  0.53800000  0.30230000  1
  C  C450  1  0.32420000  0.67560000  0.39590000  1
  C  C451  1  0.32660000  0.87850000  0.58580000  1
  C  C452  1  0.32750000  0.21330000  0.07410000  1
  C  C453  1  0.33280000  0.65430000  0.45960000  1
  C  C454  1  0.33310000  0.58020000  0.91210000  1
  C  C455  1  0.33920000  0.85940000  0.44570000  1
  C  C456  1  0.33970000  0.56050000  0.94880000  1
  C  C457  1  0.34030000  0.62020000  0.59930000  1
  C  C458  1  0.34100000  0.34500000  0.57220000  1
  C  C459  1  0.34230000  0.16470000  0.58420000  1
  C  C460  1  0.34330000  0.05810000  0.68940000  1
  C  C461  1  0.35530000  0.11000000  0.08700000  1
  C  C462  1  0.36920000  0.08580000  0.04960000  1
  C  C463  1  0.36940000  0.64450000  0.42330000  1
  C  C464  1  0.37240000  0.90110000  0.39080000  1
  C  C465  1  0.37710000  0.45720000  0.56310000  1
  C  C466  1  0.38380000  0.00510000  0.91480000  1
  C  C467  1  0.39070000  0.36490000  0.41110000  1
  C  C468  1  0.39360000  0.39380000  0.44480000  1
  C  C469  1  0.39490000  0.94130000  0.54170000  1
  C  C470  1  0.39940000  0.24220000  0.96820000  1
  C  C471  1  0.39970000  0.55450000  0.88560000  1
  C  C472  1  0.40500000  0.75490000  0.02090000  1
  C  C473  1  0.41060000  0.08510000  0.11460000  1
  C  C474  1  0.41080000  0.48930000  0.05280000  1
  C  C475  1  0.41460000  0.87070000  0.41830000  1
  C  C476  1  0.41650000  0.54090000  0.08280000  1
  C  C477  1  0.41690000  0.89560000  0.60800000  1
  C  C478  1  0.42040000  0.51550000  0.95430000  1
  C  C479  1  0.43150000  0.11680000  0.39440000  1
  C  C480  1  0.43560000  0.49500000  0.98800000  1
  C  C481  1  0.43760000  0.12980000  0.59160000  1
  C  C482  1  0.44260000  0.38230000  0.38060000  1
  C  C483  1  0.44720000  0.12530000  0.35560000  1
  C  C484  1  0.44910000  0.36470000  0.57720000  1
  C  C485  1  0.45040000  0.03790000  0.04320000  1
  C  C486  1  0.45050000  0.60140000  0.41300000  1
  C  C487  1  0.45240000  0.33860000  0.99440000  1
  C  C488  1  0.45290000  0.44580000  0.44750000  1
  C  C489  1  0.45520000  0.64980000  0.65340000  1
  C  C490  1  0.45870000  0.69010000  0.18220000  1
  C  C491  1  0.46030000  0.63720000  0.61120000  1
  C  C492  1  0.46200000  0.84710000  0.00320000  1
  C  C493  1  0.46390000  0.17180000  0.41470000  1
  C  C494  1  0.46570000  0.42070000  0.56920000  1
  C  C495  1  0.47360000  0.15220000  0.80340000  1
  C  C496  1  0.47680000  0.01740000  0.00810000  1
  C  C497  1  0.48230000  0.51000000  0.89020000  1
  C  C498  1  0.48250000  0.96040000  0.56420000  1
  C  C499  1  0.48350000  0.01060000  0.94380000  1
  C  C500  1  0.48640000  0.03800000  0.10860000  1
  C  C501  1  0.48640000  0.49150000  0.92460000  1
  C  C502  1  0.48910000  0.18940000  0.83510000  1
  C  C503  1  0.49060000  0.93650000  0.59740000  1
  C  C504  1  0.49160000  0.71610000  0.14990000  1
  C  C505  1  0.49850000  0.28520000  0.97450000  1
  C  C506  1  0.50350000  0.69560000  0.59710000  1
  C  C507  1  0.50460000  0.43320000  0.38490000  1
  C  C508  1  0.50550000  0.79350000  0.01780000  1
  C  C509  1  0.50770000  0.01560000  0.07220000  1
  C  C510  1  0.51010000  0.06810000  0.40600000  1
  C  C511  1  0.51100000  0.05510000  0.44350000  1
  C  C512  1  0.51180000  0.46460000  0.41850000  1
  C  C513  1  0.51680000  0.78120000  0.29950000  1
  C  C514  1  0.52920000  0.56880000  0.08500000  1
  C  C515  1  0.53000000  0.26540000  0.90640000  1
  C  C516  1  0.53320000  0.78260000  0.08530000  1
  C  C517  1  0.54260000  0.59060000  0.59880000  1
  C  C518  1  0.54500000  0.01210000  0.13750000  1
  C  C519  1  0.54500000  0.02890000  0.17340000  1
  C  C520  1  0.54780000  0.76530000  0.15070000  1
  C  C521  1  0.55840000  0.23380000  0.83950000  1
  C  C522  1  0.55880000  0.29540000  0.93950000  1
  C  C523  1  0.55910000  0.48950000  0.86210000  1
  C  C524  1  0.56070000  0.50490000  0.82800000  1
  C  C525  1  0.56230000  0.57470000  0.56160000  1
  C  C526  1  0.56260000  0.60780000  0.06140000  1
  C  C527  1  0.56270000  0.74320000  0.49090000  1
  C  C528  1  0.56490000  0.81010000  0.05460000  1
  C  C529  1  0.57090000  0.00170000  0.55380000  1
  C  C530  1  0.57480000  0.52180000  0.42210000  1
  C  C531  1  0.57500000  0.04510000  0.93300000  1
  C  C532  1  0.57670000  0.26120000  0.49590000  1
  C  C533  1  0.57730000  0.05830000  0.58020000  1
  C  C534  1  0.57770000  0.10390000  0.93570000  1
  C  C535  1  0.58080000  0.27100000  0.87190000  1
  C  C536  1  0.58100000  0.03870000  0.38200000  1
  C  C537  1  0.58240000  0.79650000  0.11990000  1
  C  C538  1  0.58400000  0.00890000  0.45260000  1
  C  C539  1  0.58410000  0.25760000  0.00110000  1
  C  C540  1  0.59060000  0.76270000  0.99040000  1
  C  C541  1  0.59870000  0.99580000  0.48920000  1
  C  C542  1  0.59960000  0.79540000  0.32860000  1
  C  C543  1  0.60210000  0.55610000  0.11270000  1
  C  C544  1  0.60330000  0.76800000  0.35940000  1
  C  C545  1  0.60620000  0.56190000  0.62370000  1
  C  C546  1  0.62580000  0.00080000  0.19720000  1
  C  C547  1  0.62820000  0.83960000  0.51460000  1
  C  C548  1  0.63360000  0.38210000  0.08540000  1
  C  C549  1  0.64530000  0.53330000  0.55070000  1
  C  C550  1  0.64710000  0.33840000  0.93830000  1
  C  C551  1  0.64940000  0.77330000  0.42510000  1
  C  C552  1  0.65020000  0.35540000  0.48090000  1
  C  C553  1  0.65120000  0.60780000  0.95530000  1
  C  C554  1  0.65250000  0.48370000  0.80400000  1
  C  C555  1  0.65270000  0.85120000  0.05780000  1
  C  C556  1  0.65380000  0.99350000  0.39050000  1
  C  C557  1  0.65410000  0.98180000  0.42580000  1
  C  C558  1  0.65420000  0.63330000  0.92290000  1
  C  C559  1  0.66000000  0.83930000  0.12450000  1
  C  C560  1  0.66140000  0.20710000  0.68060000  1
  C  C561  1  0.66250000  0.84950000  0.91410000  1
  C  C562  1  0.66410000  0.31330000  0.87140000  1
  C  C563  1  0.66430000  0.78220000  0.49410000  1
  C  C564  1  0.66470000  0.13590000  0.92380000  1
  C  C565  1  0.66900000  0.63120000  0.06370000  1
  C  C566  1  0.67580000  0.51860000  0.51380000  1
  C  C567  1  0.67580000  0.52040000  0.44870000  1
  C  C568  1  0.67850000  0.02570000  0.92240000  1
  C  C569  1  0.68060000  0.78260000  0.38960000  1
  C  C570  1  0.68580000  0.29800000  0.49610000  1
  C  C571  1  0.68660000  0.51960000  0.61410000  1
  C  C572  1  0.68810000  0.25030000  0.62300000  1
  C  C573  1  0.69220000  0.08580000  0.58090000  1
  C  C574  1  0.69570000  0.15240000  0.08940000  1
  C  C575  1  0.69670000  0.34760000  0.90370000  1
  C  C576  1  0.69800000  0.86800000  0.09290000  1
  C  C577  1  0.69940000  0.27800000  0.56090000  1
  C  C578  1  0.70530000  0.50600000  0.57750000  1
  C  C579  1  0.70710000  0.79380000  0.45640000  1
  C  C580  1  0.70750000  0.11960000  0.05580000  1
  C  C581  1  0.70800000  0.58180000  0.11480000  1
  C  C582  1  0.72090000  0.24540000  0.65830000  1
  C  C583  1  0.72910000  0.96550000  0.36430000  1
  C  C584  1  0.72970000  0.11860000  0.55380000  1
  C  C585  1  0.73040000  0.56800000  0.96460000  1
  C  C586  1  0.73570000  0.13320000  0.12170000  1
  C  C587  1  0.73680000  0.30640000  0.53290000  1
  C  C588  1  0.73870000  0.61910000  0.89820000  1
  C  C589  1  0.74020000  0.28540000  0.59700000  1
  C  C590  1  0.74440000  0.49270000  0.67530000  1
  C  C591  1  0.74440000  0.61810000  0.08970000  1
  C  C592  1  0.75180000  0.48830000  0.64000000  1
  C  C593  1  0.75280000  0.36880000  0.09510000  1
  C  C594  1  0.75380000  0.61980000  0.43590000  1
  C  C595  1  0.75400000  0.35620000  0.13370000  1
  C  C596  1  0.75470000  0.05800000  0.90450000  1
  C  C597  1  0.75610000  0.97190000  0.33120000  1
  C  C598  1  0.75650000  0.75190000  0.51390000  1
  C  C599  1  0.76160000  0.11700000  0.90720000  1
  C  C600  1  0.76340000  0.07620000  0.60940000  1
  C  C601  1  0.76750000  0.26740000  0.46810000  1
  C  C602  1  0.76850000  0.56250000  0.44090000  1
  C  C603  1  0.77040000  0.06880000  0.05360000  1
  C  C604  1  0.77090000  0.91470000  0.09860000  1
  C  C605  1  0.78130000  0.81150000  0.38420000  1
  C  C606  1  0.78210000  0.83530000  0.90430000  1
  C  C607  1  0.78280000  0.38690000  0.90040000  1
  C  C608  1  0.78300000  0.81370000  0.86470000  1
  C  C609  1  0.79380000  0.31570000  0.07200000  1
  C  C610  1  0.79550000  0.08120000  0.11820000  1
  C  C611  1  0.80330000  0.82910000  0.45140000  1
  C  C612  1  0.80690000  0.89900000  0.59860000  1
  C  C613  1  0.81410000  0.04870000  0.08510000  1
  C  C614  1  0.81530000  0.55400000  0.93940000  1
  C  C615  1  0.81810000  0.09950000  0.44770000  1
  C  C616  1  0.82000000  0.57970000  0.90660000  1
  C  C617  1  0.82100000  0.46200000  0.69770000  1
  C  C618  1  0.82420000  0.32440000  0.60410000  1
  C  C619  1  0.82660000  0.12150000  0.41420000  1
  C  C620  1  0.82750000  0.78670000  0.92590000  1
  C  C621  1  0.83280000  0.34570000  0.54040000  1
  C  C622  1  0.83310000  0.41980000  0.08790000  1
  C  C623  1  0.83920000  0.14060000  0.55430000  1
  C  C624  1  0.83970000  0.43950000  0.05120000  1
  C  C625  1  0.84030000  0.37980000  0.40070000  1
  C  C626  1  0.84100000  0.65500000  0.42780000  1
  C  C627  1  0.84230000  0.83530000  0.41580000  1
  C  C628  1  0.84330000  0.94190000  0.31060000  1
  C  C629  1  0.85530000  0.89000000  0.91300000  1
  C  C630  1  0.86920000  0.91420000  0.95040000  1
  C  C631  1  0.86940000  0.35550000  0.57670000  1
  C  C632  1  0.87240000  0.09890000  0.60920000  1
  C  C633  1  0.87710000  0.54280000  0.43690000  1
  C  C634  1  0.88380000  0.99490000  0.08520000  1
  C  C635  1  0.89070000  0.63510000  0.58890000  1
  C  C636  1  0.89360000  0.60620000  0.55520000  1
  C  C637  1  0.89490000  0.05870000  0.45830000  1
  C  C638  1  0.89940000  0.75780000  0.03180000  1
  C  C639  1  0.89970000  0.44550000  0.11440000  1
  C  C640  1  0.90500000  0.24510000  0.97910000  1
  C  C641  1  0.91060000  0.91490000  0.88540000  1
  C  C642  1  0.91080000  0.51070000  0.94720000  1
  C  C643  1  0.91460000  0.12930000  0.58170000  1
  C  C644  1  0.91650000  0.45910000  0.91720000  1
  C  C645  1  0.91690000  0.10440000  0.39200000  1
  C  C646  1  0.92040000  0.48450000  0.04570000  1
  C  C647  1  0.93150000  0.88320000  0.60560000  1
  C  C648  1  0.93560000  0.50500000  0.01200000  1
  C  C649  1  0.93760000  0.87020000  0.40840000  1
  C  C650  1  0.94260000  0.61770000  0.61940000  1
  C  C651  1  0.94720000  0.87470000  0.64440000  1
  C  C652  1  0.94910000  0.63530000  0.42280000  1
  C  C653  1  0.95040000  0.96210000  0.95680000  1
  C  C654  1  0.95050000  0.39860000  0.58700000  1
  C  C655  1  0.95240000  0.66140000  0.00560000  1
  C  C656  1  0.95290000  0.55420000  0.55250000  1
  C  C657  1  0.95520000  0.35020000  0.34660000  1
  C  C658  1  0.95870000  0.30990000  0.81780000  1
  C  C659  1  0.96030000  0.36280000  0.38880000  1
  C  C660  1  0.96200000  0.15290000  0.99680000  1
  C  C661  1  0.96390000  0.82820000  0.58530000  1
  C  C662  1  0.96570000  0.57930000  0.43080000  1
  C  C663  1  0.97360000  0.84780000  0.19660000  1
  C  C664  1  0.97680000  0.98260000  0.99190000  1
  C  C665  1  0.98230000  0.49000000  0.10980000  1
  C  C666  1  0.98250000  0.03960000  0.43580000  1
  C  C667  1  0.98350000  0.98940000  0.05620000  1
  C  C668  1  0.98640000  0.50850000  0.07540000  1
  C  C669  1  0.98640000  0.96200000  0.89140000  1
  C  C670  1  0.98910000  0.81060000  0.16490000  1
  C  C671  1  0.99060000  0.06350000  0.40260000  1
  C  C672  1  0.99160000  0.28390000  0.85010000  1
  C  C673  1  0.99850000  0.71480000  0.02550000  1
  N  N674  1  0.00290000  0.42830000  0.56310000  1
  N  N675  1  0.05100000  0.97670000  0.48327000  1
  N  N676  1  0.12730000  0.46200000  0.51470000  1
  N  N677  1  0.31610000  0.05700000  0.92580000  1
  N  N678  1  0.32470000  0.57900000  0.07380000  1
  N  N679  1  0.39040000  0.51590000  0.01810000  1
  N  N680  1  0.43610000  0.03290000  0.97810000  1
  N  N681  1  0.48910000  0.09470000  0.56710000  1
  N  N682  1  0.50290000  0.57170000  0.43690000  1
  N  N683  1  0.55100000  0.02330000  0.51673000  1
  N  N684  1  0.62730000  0.53800000  0.48530000  1
  N  N685  1  0.81610000  0.94300000  0.07420000  1
  N  N686  1  0.82470000  0.42100000  0.92620000  1
  N  N687  1  0.89040000  0.48410000  0.98190000  1
  N  N688  1  0.93610000  0.96710000  0.02190000  1
  N  N689  1  0.98910000  0.90530000  0.43290000  1
  Cl  Cl690  1  0.21170000  0.67174000  0.24357000  1
  Cl  Cl691  1  0.71170000  0.32826000  0.75643000  1
  O  O692  1  0.04460000  0.84900000  0.22373000  1
  O  O693  1  0.06610000  0.81430000  0.32860000  1
  O  O694  1  0.13570000  0.98430000  0.77100000  1
  O  O695  1  0.13600000  0.49960000  0.23130000  1
  O  O696  1  0.18060000  0.04480000  0.81670000  1
  O  O697  1  0.18460000  0.63540000  0.03118000  1
  O  O698  1  0.19200000  0.12620000  0.97121000  1
  O  O699  1  0.19860000  0.80070000  0.28760000  1
  O  O700  1  0.22920000  0.54660000  0.18910000  1
  O  O701  1  0.27410000  0.58290000  0.97453000  1
  O  O702  1  0.30070000  0.53820000  0.26790000  1
  O  O703  1  0.31250000  0.10530000  0.02379000  1
  O  O704  1  0.35400000  0.14640000  0.51964000  1
  O  O705  1  0.37480000  0.04930000  0.72021000  1
  O  O706  1  0.37540000  0.62920000  0.48642000  1
  O  O707  1  0.38470000  0.12230000  0.80110000  1
  O  O708  1  0.39820000  0.09490000  0.67440000  1
  O  O709  1  0.40010000  0.56710000  0.31740000  1
  O  O710  1  0.41970000  0.63870000  0.17730000  1
  O  O711  1  0.44480000  0.08230000  0.46846000  1
  O  O712  1  0.45960000  0.73510000  0.29929000  1
  O  O713  1  0.46360000  0.71650000  0.21334000  1
  O  O714  1  0.49300000  0.81700000  0.27740000  1
  O  O715  1  0.49990000  0.59830000  0.53712000  1
  O  O716  1  0.54460000  0.15100000  0.77627000  1
  O  O717  1  0.56610000  0.18570000  0.67140000  1
  O  O718  1  0.63570000  0.01570000  0.22900000  1
  O  O719  1  0.63600000  0.50040000  0.76870000  1
  O  O720  1  0.68060000  0.95520000  0.18330000  1
  O  O721  1  0.68460000  0.36460000  0.96882000  1
  O  O722  1  0.69200000  0.87380000  0.02879000  1
  O  O723  1  0.69860000  0.19930000  0.71240000  1
  O  O724  1  0.72920000  0.45340000  0.81090000  1
  O  O725  1  0.77410000  0.41710000  0.02547000  1
  O  O726  1  0.80070000  0.46180000  0.73210000  1
  O  O727  1  0.81250000  0.89470000  0.97621000  1
  O  O728  1  0.85400000  0.85360000  0.48036000  1
  O  O729  1  0.87480000  0.95070000  0.27979000  1
  O  O730  1  0.87540000  0.37080000  0.51358000  1
  O  O731  1  0.88470000  0.87770000  0.19890000  1
  O  O732  1  0.89820000  0.90510000  0.32560000  1
  O  O733  1  0.90010000  0.43290000  0.68260000  1
  O  O734  1  0.91970000  0.36130000  0.82270000  1
  O  O735  1  0.94480000  0.91770000  0.53154000  1
  O  O736  1  0.95960000  0.26490000  0.70071000  1
  O  O737  1  0.96360000  0.28350000  0.78666000  1
  O  O738  1  0.99300000  0.18300000  0.72260000  1
  O  O739  1  0.99990000  0.40170000  0.46288000  1
