# generated using pymatgen
data_Zn2H14C21(N3O4)2
_symmetry_space_group_name_H-M   'P 1'
_cell_length_a   7.31710000
_cell_length_b   15.21730000
_cell_length_c   35.75700000
_cell_angle_alpha   98.50210000
_cell_angle_beta   90.00000000
_cell_angle_gamma   103.91100000
_symmetry_Int_Tables_number   1
_chemical_formula_structural   Zn2H14C21(N3O4)2
_chemical_formula_sum   'Zn8 H56 C84 N24 O32'
_cell_volume   3819.55197524
_cell_formula_units_Z   4
loop_
 _symmetry_equiv_pos_site_id
 _symmetry_equiv_pos_as_xyz
  1  'x, y, z'
loop_
 _atom_site_type_symbol
 _atom_site_label
 _atom_site_symmetry_multiplicity
 _atom_site_fract_x
 _atom_site_fract_y
 _atom_site_fract_z
 _atom_site_occupancy
  Zn  Zn0  1  0.00727000  0.90470000  0.71846000  1
  Zn  Zn1  1  0.10257000  0.09530000  0.78154000  1
  Zn  Zn2  1  0.17181000  0.41936000  0.31534000  1
  Zn  Zn3  1  0.24755000  0.41936000  0.81534000  1
  Zn  Zn4  1  0.75245000  0.58064000  0.18466000  1
  Zn  Zn5  1  0.82819000  0.58064000  0.68466000  1
  Zn  Zn6  1  0.89743000  0.90470000  0.21846000  1
  Zn  Zn7  1  0.99273000  0.09530000  0.28154000  1
  H  H8  1  0.00040000  0.73060000  0.79800000  1
  H  H9  1  0.00860000  0.43640000  0.58700000  1
  H  H10  1  0.02620000  0.71160000  0.12030000  1
  H  H11  1  0.02790000  0.64160000  0.84350000  1
  H  H12  1  0.10800000  0.95420000  0.87650000  1
  H  H13  1  0.10980000  0.37980000  0.52960000  1
  H  H14  1  0.12600000  0.86560000  0.92260000  1
  H  H15  1  0.13940000  0.72840000  0.93920000  1
  H  H16  1  0.15260000  0.40000000  0.97620000  1
  H  H17  1  0.15380000  0.04580000  0.62350000  1
  H  H18  1  0.22060000  0.72900000  0.14210000  1
  H  H19  1  0.23100000  0.69200000  0.56750000  1
  H  H20  1  0.24740000  0.40000000  0.47620000  1
  H  H21  1  0.25940000  0.54460000  0.15460000  1
  H  H22  1  0.25950000  0.63180000  0.18380000  1
  H  H23  1  0.26040000  0.13440000  0.57740000  1
  H  H24  1  0.26980000  0.26940000  0.70200000  1
  H  H25  1  0.27000000  0.37980000  0.02960000  1
  H  H26  1  0.28520000  0.54460000  0.65460000  1
  H  H27  1  0.30680000  0.63640000  0.00920000  1
  H  H28  1  0.31460000  0.28840000  0.37970000  1
  H  H29  1  0.32960000  0.63640000  0.50920000  1
  H  H30  1  0.37230000  0.63180000  0.68380000  1
  H  H31  1  0.38630000  0.35840000  0.65650000  1
  H  H32  1  0.41100000  0.27160000  0.56080000  1
  H  H33  1  0.42780000  0.43640000  0.08700000  1
  H  H34  1  0.46100000  0.69200000  0.06750000  1
  H  H35  1  0.49160000  0.27100000  0.35790000  1
  H  H36  1  0.50840000  0.72900000  0.64210000  1
  H  H37  1  0.53900000  0.30800000  0.93250000  1
  H  H38  1  0.57220000  0.56360000  0.91300000  1
  H  H39  1  0.58900000  0.72840000  0.43920000  1
  H  H40  1  0.61370000  0.64160000  0.34350000  1
  H  H41  1  0.62770000  0.36820000  0.31620000  1
  H  H42  1  0.67040000  0.36360000  0.49080000  1
  H  H43  1  0.68540000  0.71160000  0.62030000  1
  H  H44  1  0.69320000  0.36360000  0.99080000  1
  H  H45  1  0.71480000  0.45540000  0.34540000  1
  H  H46  1  0.73000000  0.62020000  0.97040000  1
  H  H47  1  0.73020000  0.73060000  0.29800000  1
  H  H48  1  0.73960000  0.86560000  0.42260000  1
  H  H49  1  0.74050000  0.36820000  0.81620000  1
  H  H50  1  0.74060000  0.45540000  0.84540000  1
  H  H51  1  0.75260000  0.60000000  0.52380000  1
  H  H52  1  0.76900000  0.30800000  0.43250000  1
  H  H53  1  0.77940000  0.27100000  0.85790000  1
  H  H54  1  0.84620000  0.95420000  0.37650000  1
  H  H55  1  0.84740000  0.60000000  0.02380000  1
  H  H56  1  0.86060000  0.27160000  0.06080000  1
  H  H57  1  0.87400000  0.13440000  0.07740000  1
  H  H58  1  0.89020000  0.62020000  0.47040000  1
  H  H59  1  0.89200000  0.04580000  0.12350000  1
  H  H60  1  0.97210000  0.35840000  0.15650000  1
  H  H61  1  0.97380000  0.28840000  0.87970000  1
  H  H62  1  0.99140000  0.56360000  0.41300000  1
  H  H63  1  0.99960000  0.26940000  0.20200000  1
  C  C64  1  0.00939000  0.75138000  0.17742000  1
  C  C65  1  0.01060000  0.45700000  0.88857000  1
  C  C66  1  0.02776000  0.75812000  0.82303000  1
  C  C67  1  0.03941000  0.60682000  0.62045000  1
  C  C68  1  0.04060000  0.90840000  0.80173000  1
  C  C69  1  0.04309000  0.70438000  0.85038000  1
  C  C70  1  0.05230000  0.85200000  0.83214000  1
  C  C71  1  0.07273000  0.47666000  0.57151000  1
  C  C72  1  0.08105000  0.74370000  0.88808000  1
  C  C73  1  0.08153000  0.51686000  0.19756000  1
  C  C74  1  0.08646000  0.70232000  0.14304000  1
  C  C75  1  0.09050000  0.89120000  0.86979000  1
  C  C76  1  0.09269000  0.60358000  0.91643000  1
  C  C77  1  0.10290000  0.83820000  0.89751000  1
  C  C78  1  0.10751000  0.57082000  0.58321000  1
  C  C79  1  0.13220000  0.09160000  0.69827000  1
  C  C80  1  0.13266000  0.44272000  0.53707000  1
  C  C81  1  0.13390000  0.49240000  0.94791000  1
  C  C82  1  0.17879000  0.57698000  0.16965000  1
  C  C83  1  0.19930000  0.10880000  0.63021000  1
  C  C84  1  0.20030000  0.14800000  0.66786000  1
  C  C85  1  0.20506000  0.62912000  0.55969000  1
  C  C86  1  0.22759000  0.50198000  0.51316000  1
  C  C87  1  0.25801000  0.24862000  0.32258000  1
  C  C88  1  0.26470000  0.16180000  0.60249000  1
  C  C89  1  0.26518000  0.59616000  0.52469000  1
  C  C90  1  0.26964000  0.24188000  0.67697000  1
  C  C91  1  0.27439000  0.50198000  0.01316000  1
  C  C92  1  0.31006000  0.44272000  0.03707000  1
  C  C93  1  0.33098000  0.59616000  0.02469000  1
  C  C94  1  0.33735000  0.25630000  0.61192000  1
  C  C95  1  0.33871000  0.29562000  0.64962000  1
  C  C96  1  0.35850000  0.49240000  0.44791000  1
  C  C97  1  0.38414000  0.29768000  0.35696000  1
  C  C98  1  0.39819000  0.57698000  0.66965000  1
  C  C99  1  0.40393000  0.47666000  0.07151000  1
  C  C100  1  0.42406000  0.62912000  0.05969000  1
  C  C101  1  0.43259000  0.39318000  0.87955000  1
  C  C102  1  0.43533000  0.51686000  0.69756000  1
  C  C103  1  0.44640000  0.45700000  0.38857000  1
  C  C104  1  0.46331000  0.57082000  0.08321000  1
  C  C105  1  0.48911000  0.39642000  0.58357000  1
  C  C106  1  0.51089000  0.60358000  0.41643000  1
  C  C107  1  0.53669000  0.42918000  0.91679000  1
  C  C108  1  0.55360000  0.54300000  0.61143000  1
  C  C109  1  0.56467000  0.48314000  0.30244000  1
  C  C110  1  0.56741000  0.60682000  0.12045000  1
  C  C111  1  0.57594000  0.37088000  0.94031000  1
  C  C112  1  0.59607000  0.52334000  0.92849000  1
  C  C113  1  0.60181000  0.42302000  0.33035000  1
  C  C114  1  0.61586000  0.70232000  0.64304000  1
  C  C115  1  0.64150000  0.50760000  0.55209000  1
  C  C116  1  0.66129000  0.70438000  0.35038000  1
  C  C117  1  0.66265000  0.74370000  0.38808000  1
  C  C118  1  0.66902000  0.40384000  0.97531000  1
  C  C119  1  0.68994000  0.55728000  0.96293000  1
  C  C120  1  0.72561000  0.49802000  0.98684000  1
  C  C121  1  0.73036000  0.75812000  0.32303000  1
  C  C122  1  0.73482000  0.40384000  0.47531000  1
  C  C123  1  0.73530000  0.83820000  0.39751000  1
  C  C124  1  0.74199000  0.75138000  0.67742000  1
  C  C125  1  0.77241000  0.49802000  0.48684000  1
  C  C126  1  0.79494000  0.37088000  0.44031000  1
  C  C127  1  0.79970000  0.85200000  0.33214000  1
  C  C128  1  0.80070000  0.89120000  0.36979000  1
  C  C129  1  0.82121000  0.42302000  0.83035000  1
  C  C130  1  0.86610000  0.50760000  0.05209000  1
  C  C131  1  0.86734000  0.55728000  0.46293000  1
  C  C132  1  0.86780000  0.90840000  0.30173000  1
  C  C133  1  0.89249000  0.42918000  0.41679000  1
  C  C134  1  0.89710000  0.16180000  0.10249000  1
  C  C135  1  0.90731000  0.39642000  0.08357000  1
  C  C136  1  0.90950000  0.10880000  0.13021000  1
  C  C137  1  0.91354000  0.29768000  0.85696000  1
  C  C138  1  0.91847000  0.48314000  0.80244000  1
  C  C139  1  0.91895000  0.25630000  0.11192000  1
  C  C140  1  0.92727000  0.52334000  0.42849000  1
  C  C141  1  0.94770000  0.14800000  0.16786000  1
  C  C142  1  0.95691000  0.29562000  0.14962000  1
  C  C143  1  0.95940000  0.09160000  0.19827000  1
  C  C144  1  0.96059000  0.39318000  0.37955000  1
  C  C145  1  0.97224000  0.24188000  0.17697000  1
  C  C146  1  0.98940000  0.54300000  0.11143000  1
  C  C147  1  0.99061000  0.24862000  0.82258000  1
  N  N148  1  0.01883000  0.54526000  0.88567000  1
  N  N149  1  0.05551000  0.60482000  0.14381000  1
  N  N150  1  0.06328000  0.42596000  0.91845000  1
  N  N151  1  0.10828000  0.69536000  0.91741000  1
  N  N152  1  0.15481000  0.58222000  0.94858000  1
  N  N153  1  0.18319000  0.45878000  0.97855000  1
  N  N154  1  0.27559000  0.45878000  0.47855000  1
  N  N155  1  0.36268000  0.42596000  0.41845000  1
  N  N156  1  0.41292000  0.30464000  0.58259000  1
  N  N157  1  0.42741000  0.58222000  0.44858000  1
  N  N158  1  0.45069000  0.39518000  0.35619000  1
  N  N159  1  0.47357000  0.45474000  0.61433000  1
  N  N160  1  0.52643000  0.54526000  0.38567000  1
  N  N161  1  0.54931000  0.60482000  0.64381000  1
  N  N162  1  0.57259000  0.41778000  0.55142000  1
  N  N163  1  0.58708000  0.69536000  0.41741000  1
  N  N164  1  0.63732000  0.57404000  0.58155000  1
  N  N165  1  0.72441000  0.54122000  0.52145000  1
  N  N166  1  0.81681000  0.54122000  0.02145000  1
  N  N167  1  0.84519000  0.41778000  0.05142000  1
  N  N168  1  0.89172000  0.30464000  0.08259000  1
  N  N169  1  0.93672000  0.57404000  0.08155000  1
  N  N170  1  0.94449000  0.39518000  0.85619000  1
  N  N171  1  0.98117000  0.45474000  0.11433000  1
  O  O172  1  0.00214000  0.86648000  0.76851000  1
  O  O173  1  0.05461000  0.45442000  0.36116000  1
  O  O174  1  0.05808000  0.83816000  0.18238000  1
  O  O175  1  0.07040000  0.99420000  0.81177000  1
  O  O176  1  0.07614000  0.69008000  0.63208000  1
  O  O177  1  0.07620000  0.00580000  0.68823000  1
  O  O178  1  0.09340000  0.49480000  0.79749000  1
  O  O179  1  0.09905000  0.29190000  0.80103000  1
  O  O180  1  0.13566000  0.13352000  0.73149000  1
  O  O181  1  0.18487000  0.48134000  0.21514000  1
  O  O182  1  0.19285000  0.29190000  0.30103000  1
  O  O183  1  0.21992000  0.16184000  0.31762000  1
  O  O184  1  0.29647000  0.48134000  0.71514000  1
  O  O185  1  0.38606000  0.30992000  0.86792000  1
  O  O186  1  0.39981000  0.45442000  0.86116000  1
  O  O187  1  0.40140000  0.49480000  0.29749000  1
  O  O188  1  0.59860000  0.50520000  0.70251000  1
  O  O189  1  0.60019000  0.54558000  0.13884000  1
  O  O190  1  0.61394000  0.69008000  0.13208000  1
  O  O191  1  0.70353000  0.51866000  0.28486000  1
  O  O192  1  0.78008000  0.83816000  0.68238000  1
  O  O193  1  0.80715000  0.70810000  0.69897000  1
  O  O194  1  0.81513000  0.51866000  0.78486000  1
  O  O195  1  0.86434000  0.86648000  0.26851000  1
  O  O196  1  0.90095000  0.70810000  0.19897000  1
  O  O197  1  0.90660000  0.50520000  0.20251000  1
  O  O198  1  0.92380000  0.99420000  0.31177000  1
  O  O199  1  0.92386000  0.30992000  0.36792000  1
  O  O200  1  0.92960000  0.00580000  0.18823000  1
  O  O201  1  0.94192000  0.16184000  0.81762000  1
  O  O202  1  0.94539000  0.54558000  0.63884000  1
  O  O203  1  0.99786000  0.13352000  0.23149000  1
