# generated using pymatgen
data_MnH5C9N7
_symmetry_space_group_name_H-M   'P 1'
_cell_length_a   12.94600000
_cell_length_b   15.95700000
_cell_length_c   23.74600000
_cell_angle_alpha   90.00000000
_cell_angle_beta   90.00000000
_cell_angle_gamma   90.00000000
_symmetry_Int_Tables_number   1
_chemical_formula_structural   MnH5C9N7
_chemical_formula_sum   'Mn16 H80 C144 N112'
_cell_volume   4905.43258021
_cell_formula_units_Z   16
loop_
 _symmetry_equiv_pos_site_id
 _symmetry_equiv_pos_as_xyz
  1  'x, y, z'
loop_
 _atom_site_type_symbol
 _atom_site_label
 _atom_site_symmetry_multiplicity
 _atom_site_fract_x
 _atom_site_fract_y
 _atom_site_fract_z
 _atom_site_occupancy
  Mn  Mn0  1  0.89383000  0.00940000  0.73095000  1
  Mn  Mn1  1  0.89383000  0.49060000  0.26905000  1
  Mn  Mn2  1  0.78770000  0.61317000  0.52283000  1
  Mn  Mn3  1  0.78770000  0.88683000  0.47717000  1
  Mn  Mn4  1  0.71230000  0.11317000  0.97717000  1
  Mn  Mn5  1  0.71230000  0.38683000  0.02283000  1
  Mn  Mn6  1  0.60617000  0.50940000  0.76905000  1
  Mn  Mn7  1  0.60617000  0.99060000  0.23095000  1
  Mn  Mn8  1  0.39383000  0.00940000  0.76905000  1
  Mn  Mn9  1  0.39383000  0.49060000  0.23095000  1
  Mn  Mn10  1  0.28770000  0.61317000  0.97717000  1
  Mn  Mn11  1  0.28770000  0.88683000  0.02283000  1
  Mn  Mn12  1  0.21230000  0.11317000  0.52283000  1
  Mn  Mn13  1  0.21230000  0.38683000  0.47717000  1
  Mn  Mn14  1  0.10617000  0.50940000  0.73095000  1
  Mn  Mn15  1  0.10617000  0.99060000  0.26905000  1
  H  H16  1  0.95170000  0.82690000  0.89820000  1
  H  H17  1  0.95170000  0.67310000  0.10180000  1
  H  H18  1  0.89800000  0.21360000  0.76500000  1
  H  H19  1  0.89800000  0.28640000  0.23500000  1
  H  H20  1  0.89330000  0.58840000  0.94640000  1
  H  H21  1  0.89330000  0.91160000  0.05360000  1
  H  H22  1  0.88480000  0.49540000  0.79920000  1
  H  H23  1  0.88480000  0.00460000  0.20080000  1
  H  H24  1  0.87660000  0.67980000  0.64670000  1
  H  H25  1  0.87660000  0.82020000  0.35330000  1
  H  H26  1  0.87550000  0.32890000  0.91930000  1
  H  H27  1  0.87550000  0.17110000  0.08070000  1
  H  H28  1  0.86920000  0.34230000  0.72610000  1
  H  H29  1  0.86920000  0.15770000  0.27390000  1
  H  H30  1  0.83380000  0.87050000  0.96560000  1
  H  H31  1  0.83380000  0.62950000  0.03440000  1
  H  H32  1  0.82730000  0.35190000  0.63200000  1
  H  H33  1  0.82730000  0.14810000  0.36800000  1
  H  H34  1  0.81040000  0.23070000  0.57960000  1
  H  H35  1  0.81040000  0.26930000  0.42040000  1
  H  H36  1  0.68960000  0.73070000  0.92040000  1
  H  H37  1  0.68960000  0.76930000  0.07960000  1
  H  H38  1  0.67270000  0.85190000  0.86800000  1
  H  H39  1  0.67270000  0.64810000  0.13200000  1
  H  H40  1  0.66620000  0.37050000  0.53440000  1
  H  H41  1  0.66620000  0.12950000  0.46560000  1
  H  H42  1  0.63080000  0.84230000  0.77390000  1
  H  H43  1  0.63080000  0.65770000  0.22610000  1
  H  H44  1  0.62450000  0.82890000  0.58070000  1
  H  H45  1  0.62450000  0.67110000  0.41930000  1
  H  H46  1  0.62340000  0.17980000  0.85330000  1
  H  H47  1  0.62340000  0.32020000  0.14670000  1
  H  H48  1  0.61520000  0.99540000  0.70080000  1
  H  H49  1  0.61520000  0.50460000  0.29920000  1
  H  H50  1  0.60670000  0.08840000  0.55360000  1
  H  H51  1  0.60670000  0.41160000  0.44640000  1
  H  H52  1  0.60200000  0.71360000  0.73500000  1
  H  H53  1  0.60200000  0.78640000  0.26500000  1
  H  H54  1  0.54830000  0.32690000  0.60180000  1
  H  H55  1  0.54830000  0.17310000  0.39820000  1
  H  H56  1  0.45170000  0.82690000  0.60180000  1
  H  H57  1  0.45170000  0.67310000  0.39820000  1
  H  H58  1  0.39800000  0.21360000  0.73500000  1
  H  H59  1  0.39800000  0.28640000  0.26500000  1
  H  H60  1  0.39330000  0.58840000  0.55360000  1
  H  H61  1  0.39330000  0.91160000  0.44640000  1
  H  H62  1  0.38480000  0.49540000  0.70080000  1
  H  H63  1  0.38480000  0.00460000  0.29920000  1
  H  H64  1  0.37660000  0.67980000  0.85330000  1
  H  H65  1  0.37660000  0.82020000  0.14670000  1
  H  H66  1  0.37550000  0.32890000  0.58070000  1
  H  H67  1  0.37550000  0.17110000  0.41930000  1
  H  H68  1  0.36920000  0.34230000  0.77390000  1
  H  H69  1  0.36920000  0.15770000  0.22610000  1
  H  H70  1  0.33380000  0.87050000  0.53440000  1
  H  H71  1  0.33380000  0.62950000  0.46560000  1
  H  H72  1  0.32730000  0.35190000  0.86800000  1
  H  H73  1  0.32730000  0.14810000  0.13200000  1
  H  H74  1  0.31040000  0.23070000  0.92040000  1
  H  H75  1  0.31040000  0.26930000  0.07960000  1
  H  H76  1  0.18960000  0.73070000  0.57960000  1
  H  H77  1  0.18960000  0.76930000  0.42040000  1
  H  H78  1  0.17270000  0.85190000  0.63200000  1
  H  H79  1  0.17270000  0.64810000  0.36800000  1
  H  H80  1  0.16620000  0.37050000  0.96560000  1
  H  H81  1  0.16620000  0.12950000  0.03440000  1
  H  H82  1  0.13080000  0.84230000  0.72610000  1
  H  H83  1  0.13080000  0.65770000  0.27390000  1
  H  H84  1  0.12450000  0.82890000  0.91930000  1
  H  H85  1  0.12450000  0.67110000  0.08070000  1
  H  H86  1  0.12340000  0.17980000  0.64670000  1
  H  H87  1  0.12340000  0.32020000  0.35330000  1
  H  H88  1  0.11520000  0.99540000  0.79920000  1
  H  H89  1  0.11520000  0.50460000  0.20080000  1
  H  H90  1  0.10670000  0.08840000  0.94640000  1
  H  H91  1  0.10670000  0.41160000  0.05360000  1
  H  H92  1  0.10200000  0.71360000  0.76500000  1
  H  H93  1  0.10200000  0.78640000  0.23500000  1
  H  H94  1  0.04830000  0.32690000  0.89820000  1
  H  H95  1  0.04830000  0.17310000  0.10180000  1
  C  C96  1  0.97400000  0.84470000  0.93349000  1
  C  C97  1  0.97400000  0.65530000  0.06651000  1
  C  C98  1  0.95490000  0.10480000  0.96411000  1
  C  C99  1  0.95490000  0.39520000  0.03589000  1
  C  C100  1  0.93950000  0.60490000  0.97432000  1
  C  C101  1  0.93950000  0.89510000  0.02568000  1
  C  C102  1  0.92250000  0.34610000  0.94657000  1
  C  C103  1  0.92250000  0.15390000  0.05343000  1
  C  C104  1  0.91130000  0.07850000  0.91005000  1
  C  C105  1  0.91130000  0.42150000  0.08995000  1
  C  C106  1  0.90410000  0.87010000  0.97356000  1
  C  C107  1  0.90410000  0.62990000  0.02644000  1
  C  C108  1  0.88010000  0.21700000  0.72720000  1
  C  C109  1  0.88010000  0.28300000  0.27280000  1
  C  C110  1  0.86870000  0.50590000  0.76167000  1
  C  C111  1  0.86870000  0.99410000  0.23833000  1
  C  C112  1  0.86340000  0.29430000  0.70420000  1
  C  C113  1  0.86340000  0.20570000  0.29580000  1
  C  C114  1  0.86310000  0.72750000  0.62546000  1
  C  C115  1  0.86310000  0.77250000  0.37454000  1
  C  C116  1  0.84540000  0.15190000  0.64293000  1
  C  C117  1  0.84540000  0.34810000  0.35707000  1
  C  C118  1  0.84500000  0.85150000  0.60140000  1
  C  C119  1  0.84500000  0.64850000  0.39860000  1
  C  C120  1  0.83800000  0.29980000  0.64860000  1
  C  C121  1  0.83800000  0.20020000  0.35140000  1
  C  C122  1  0.83740000  0.94250000  0.59851000  1
  C  C123  1  0.83740000  0.55750000  0.40149000  1
  C  C124  1  0.83580000  0.07120000  0.61311000  1
  C  C125  1  0.83580000  0.42880000  0.38689000  1
  C  C126  1  0.82830000  0.22800000  0.61750000  1
  C  C127  1  0.82830000  0.27200000  0.38250000  1
  C  C128  1  0.80310000  0.04500000  0.84859000  1
  C  C129  1  0.80310000  0.45500000  0.15141000  1
  C  C130  1  0.78730000  0.52820000  0.68666000  1
  C  C131  1  0.78730000  0.97180000  0.31334000  1
  C  C132  1  0.71270000  0.02820000  0.81334000  1
  C  C133  1  0.71270000  0.47180000  0.18666000  1
  C  C134  1  0.69690000  0.54500000  0.65141000  1
  C  C135  1  0.69690000  0.95500000  0.34859000  1
  C  C136  1  0.67170000  0.72800000  0.88250000  1
  C  C137  1  0.67170000  0.77200000  0.11750000  1
  C  C138  1  0.66420000  0.57120000  0.88689000  1
  C  C139  1  0.66420000  0.92880000  0.11311000  1
  C  C140  1  0.66260000  0.44250000  0.90149000  1
  C  C141  1  0.66260000  0.05750000  0.09851000  1
  C  C142  1  0.66200000  0.79980000  0.85140000  1
  C  C143  1  0.66200000  0.70020000  0.14860000  1
  C  C144  1  0.65500000  0.35150000  0.89860000  1
  C  C145  1  0.65500000  0.14850000  0.10140000  1
  C  C146  1  0.65460000  0.65190000  0.85707000  1
  C  C147  1  0.65460000  0.84810000  0.14293000  1
  C  C148  1  0.63690000  0.22750000  0.87454000  1
  C  C149  1  0.63690000  0.27250000  0.12546000  1
  C  C150  1  0.63660000  0.79430000  0.79580000  1
  C  C151  1  0.63660000  0.70570000  0.20420000  1
  C  C152  1  0.63130000  0.00590000  0.73833000  1
  C  C153  1  0.63130000  0.49410000  0.26167000  1
  C  C154  1  0.61990000  0.71700000  0.77280000  1
  C  C155  1  0.61990000  0.78300000  0.22720000  1
  C  C156  1  0.59590000  0.37010000  0.52644000  1
  C  C157  1  0.59590000  0.12990000  0.47356000  1
  C  C158  1  0.58870000  0.57850000  0.58995000  1
  C  C159  1  0.58870000  0.92150000  0.41005000  1
  C  C160  1  0.57750000  0.84610000  0.55343000  1
  C  C161  1  0.57750000  0.65390000  0.44657000  1
  C  C162  1  0.56050000  0.10490000  0.52568000  1
  C  C163  1  0.56050000  0.39510000  0.47432000  1
  C  C164  1  0.54510000  0.60480000  0.53589000  1
  C  C165  1  0.54510000  0.89520000  0.46411000  1
  C  C166  1  0.52600000  0.34470000  0.56651000  1
  C  C167  1  0.52600000  0.15530000  0.43349000  1
  C  C168  1  0.47400000  0.84470000  0.56651000  1
  C  C169  1  0.47400000  0.65530000  0.43349000  1
  C  C170  1  0.45490000  0.10480000  0.53589000  1
  C  C171  1  0.45490000  0.39520000  0.46411000  1
  C  C172  1  0.43950000  0.60490000  0.52568000  1
  C  C173  1  0.43950000  0.89510000  0.47432000  1
  C  C174  1  0.42250000  0.34610000  0.55343000  1
  C  C175  1  0.42250000  0.15390000  0.44657000  1
  C  C176  1  0.41130000  0.07850000  0.58995000  1
  C  C177  1  0.41130000  0.42150000  0.41005000  1
  C  C178  1  0.40410000  0.87010000  0.52644000  1
  C  C179  1  0.40410000  0.62990000  0.47356000  1
  C  C180  1  0.38010000  0.21700000  0.77280000  1
  C  C181  1  0.38010000  0.28300000  0.22720000  1
  C  C182  1  0.36870000  0.50590000  0.73833000  1
  C  C183  1  0.36870000  0.99410000  0.26167000  1
  C  C184  1  0.36340000  0.29430000  0.79580000  1
  C  C185  1  0.36340000  0.20570000  0.20420000  1
  C  C186  1  0.36310000  0.72750000  0.87454000  1
  C  C187  1  0.36310000  0.77250000  0.12546000  1
  C  C188  1  0.34540000  0.15190000  0.85707000  1
  C  C189  1  0.34540000  0.34810000  0.14293000  1
  C  C190  1  0.34500000  0.85150000  0.89860000  1
  C  C191  1  0.34500000  0.64850000  0.10140000  1
  C  C192  1  0.33800000  0.29980000  0.85140000  1
  C  C193  1  0.33800000  0.20020000  0.14860000  1
  C  C194  1  0.33740000  0.94250000  0.90149000  1
  C  C195  1  0.33740000  0.55750000  0.09851000  1
  C  C196  1  0.33580000  0.07120000  0.88689000  1
  C  C197  1  0.33580000  0.42880000  0.11311000  1
  C  C198  1  0.32830000  0.22800000  0.88250000  1
  C  C199  1  0.32830000  0.27200000  0.11750000  1
  C  C200  1  0.30310000  0.04500000  0.65141000  1
  C  C201  1  0.30310000  0.45500000  0.34859000  1
  C  C202  1  0.28730000  0.52820000  0.81334000  1
  C  C203  1  0.28730000  0.97180000  0.18666000  1
  C  C204  1  0.21270000  0.02820000  0.68666000  1
  C  C205  1  0.21270000  0.47180000  0.31334000  1
  C  C206  1  0.19690000  0.54500000  0.84859000  1
  C  C207  1  0.19690000  0.95500000  0.15141000  1
  C  C208  1  0.17170000  0.72800000  0.61750000  1
  C  C209  1  0.17170000  0.77200000  0.38250000  1
  C  C210  1  0.16420000  0.57120000  0.61311000  1
  C  C211  1  0.16420000  0.92880000  0.38689000  1
  C  C212  1  0.16260000  0.44250000  0.59851000  1
  C  C213  1  0.16260000  0.05750000  0.40149000  1
  C  C214  1  0.16200000  0.79980000  0.64860000  1
  C  C215  1  0.16200000  0.70020000  0.35140000  1
  C  C216  1  0.15500000  0.35150000  0.60140000  1
  C  C217  1  0.15500000  0.14850000  0.39860000  1
  C  C218  1  0.15460000  0.65190000  0.64293000  1
  C  C219  1  0.15460000  0.84810000  0.35707000  1
  C  C220  1  0.13690000  0.22750000  0.62546000  1
  C  C221  1  0.13690000  0.27250000  0.37454000  1
  C  C222  1  0.13660000  0.79430000  0.70420000  1
  C  C223  1  0.13660000  0.70570000  0.29580000  1
  C  C224  1  0.13130000  0.00590000  0.76167000  1
  C  C225  1  0.13130000  0.49410000  0.23833000  1
  C  C226  1  0.11990000  0.71700000  0.72720000  1
  C  C227  1  0.11990000  0.78300000  0.27280000  1
  C  C228  1  0.09590000  0.37010000  0.97356000  1
  C  C229  1  0.09590000  0.12990000  0.02644000  1
  C  C230  1  0.08870000  0.57850000  0.91005000  1
  C  C231  1  0.08870000  0.92150000  0.08995000  1
  C  C232  1  0.07750000  0.84610000  0.94657000  1
  C  C233  1  0.07750000  0.65390000  0.05343000  1
  C  C234  1  0.06050000  0.10490000  0.97432000  1
  C  C235  1  0.06050000  0.39510000  0.02568000  1
  C  C236  1  0.04510000  0.60480000  0.96411000  1
  C  C237  1  0.04510000  0.89520000  0.03589000  1
  C  C238  1  0.02600000  0.34470000  0.93349000  1
  C  C239  1  0.02600000  0.15530000  0.06651000  1
  N  N240  1  0.96680000  0.06520000  0.86400000  1
  N  N241  1  0.96680000  0.43480000  0.13600000  1
  N  N242  1  0.93927000  0.51512000  0.72169000  1
  N  N243  1  0.93927000  0.98488000  0.27831000  1
  N  N244  1  0.89580000  0.04290000  0.82373000  1
  N  N245  1  0.89580000  0.45710000  0.17627000  1
  N  N246  1  0.88580000  0.37130000  0.99698000  1
  N  N247  1  0.88580000  0.12870000  0.00302000  1
  N  N248  1  0.88547000  0.52929000  0.67210000  1
  N  N249  1  0.88547000  0.97071000  0.32790000  1
  N  N250  1  0.87210000  0.14563000  0.69756000  1
  N  N251  1  0.87210000  0.35437000  0.30244000  1
  N  N252  1  0.86820000  0.80530000  0.64705000  1
  N  N253  1  0.86820000  0.69470000  0.35295000  1
  N  N254  1  0.85360000  0.99731000  0.64002000  1
  N  N255  1  0.85360000  0.50269000  0.35998000  1
  N  N256  1  0.83740000  0.72410000  0.57148000  1
  N  N257  1  0.83740000  0.77590000  0.42852000  1
  N  N258  1  0.82680000  0.80703000  0.55538000  1
  N  N259  1  0.82680000  0.69297000  0.44462000  1
  N  N260  1  0.81100000  0.97778000  0.54979000  1
  N  N261  1  0.81100000  0.52222000  0.45021000  1
  N  N262  1  0.81060000  0.06288000  0.55940000  1
  N  N263  1  0.81060000  0.43712000  0.44060000  1
  N  N264  1  0.80795000  0.06707000  0.90339000  1
  N  N265  1  0.80795000  0.43293000  0.09661000  1
  N  N266  1  0.77200000  0.51313000  0.74244000  1
  N  N267  1  0.77200000  0.98687000  0.25756000  1
  N  N268  1  0.72800000  0.01313000  0.75756000  1
  N  N269  1  0.72800000  0.48687000  0.24244000  1
  N  N270  1  0.69205000  0.56707000  0.59661000  1
  N  N271  1  0.69205000  0.93293000  0.40339000  1
  N  N272  1  0.68940000  0.56288000  0.94060000  1
  N  N273  1  0.68940000  0.93712000  0.05940000  1
  N  N274  1  0.68900000  0.47778000  0.95021000  1
  N  N275  1  0.68900000  0.02222000  0.04979000  1
  N  N276  1  0.67320000  0.30703000  0.94462000  1
  N  N277  1  0.67320000  0.19297000  0.05538000  1
  N  N278  1  0.66260000  0.22410000  0.92852000  1
  N  N279  1  0.66260000  0.27590000  0.07148000  1
  N  N280  1  0.64640000  0.49731000  0.85998000  1
  N  N281  1  0.64640000  0.00269000  0.14002000  1
  N  N282  1  0.63180000  0.30530000  0.85295000  1
  N  N283  1  0.63180000  0.19470000  0.14705000  1
  N  N284  1  0.62790000  0.64563000  0.80244000  1
  N  N285  1  0.62790000  0.85437000  0.19756000  1
  N  N286  1  0.61453000  0.02929000  0.82790000  1
  N  N287  1  0.61453000  0.47071000  0.17210000  1
  N  N288  1  0.61420000  0.87130000  0.50302000  1
  N  N289  1  0.61420000  0.62870000  0.49698000  1
  N  N290  1  0.60420000  0.54290000  0.67627000  1
  N  N291  1  0.60420000  0.95710000  0.32373000  1
  N  N292  1  0.56073000  0.01512000  0.77831000  1
  N  N293  1  0.56073000  0.48488000  0.22169000  1
  N  N294  1  0.53320000  0.56520000  0.63600000  1
  N  N295  1  0.53320000  0.93480000  0.36400000  1
  N  N296  1  0.46680000  0.06520000  0.63600000  1
  N  N297  1  0.46680000  0.43480000  0.36400000  1
  N  N298  1  0.43927000  0.51512000  0.77831000  1
  N  N299  1  0.43927000  0.98488000  0.22169000  1
  N  N300  1  0.39580000  0.04290000  0.67627000  1
  N  N301  1  0.39580000  0.45710000  0.32373000  1
  N  N302  1  0.38580000  0.37130000  0.50302000  1
  N  N303  1  0.38580000  0.12870000  0.49698000  1
  N  N304  1  0.38547000  0.52929000  0.82790000  1
  N  N305  1  0.38547000  0.97071000  0.17210000  1
  N  N306  1  0.37210000  0.14563000  0.80244000  1
  N  N307  1  0.37210000  0.35437000  0.19756000  1
  N  N308  1  0.36820000  0.80530000  0.85295000  1
  N  N309  1  0.36820000  0.69470000  0.14705000  1
  N  N310  1  0.35360000  0.99731000  0.85998000  1
  N  N311  1  0.35360000  0.50269000  0.14002000  1
  N  N312  1  0.33740000  0.72410000  0.92852000  1
  N  N313  1  0.33740000  0.77590000  0.07148000  1
  N  N314  1  0.32680000  0.80703000  0.94462000  1
  N  N315  1  0.32680000  0.69297000  0.05538000  1
  N  N316  1  0.31100000  0.97778000  0.95021000  1
  N  N317  1  0.31100000  0.52222000  0.04979000  1
  N  N318  1  0.31060000  0.06288000  0.94060000  1
  N  N319  1  0.31060000  0.43712000  0.05940000  1
  N  N320  1  0.30795000  0.06707000  0.59661000  1
  N  N321  1  0.30795000  0.43293000  0.40339000  1
  N  N322  1  0.27200000  0.51313000  0.75756000  1
  N  N323  1  0.27200000  0.98687000  0.24244000  1
  N  N324  1  0.22800000  0.01313000  0.74244000  1
  N  N325  1  0.22800000  0.48687000  0.25756000  1
  N  N326  1  0.19205000  0.56707000  0.90339000  1
  N  N327  1  0.19205000  0.93293000  0.09661000  1
  N  N328  1  0.18940000  0.56288000  0.55940000  1
  N  N329  1  0.18940000  0.93712000  0.44060000  1
  N  N330  1  0.18900000  0.47778000  0.54979000  1
  N  N331  1  0.18900000  0.02222000  0.45021000  1
  N  N332  1  0.17320000  0.30703000  0.55538000  1
  N  N333  1  0.17320000  0.19297000  0.44462000  1
  N  N334  1  0.16260000  0.22410000  0.57148000  1
  N  N335  1  0.16260000  0.27590000  0.42852000  1
  N  N336  1  0.14640000  0.49731000  0.64002000  1
  N  N337  1  0.14640000  0.00269000  0.35998000  1
  N  N338  1  0.13180000  0.30530000  0.64705000  1
  N  N339  1  0.13180000  0.19470000  0.35295000  1
  N  N340  1  0.12790000  0.64563000  0.69756000  1
  N  N341  1  0.12790000  0.85437000  0.30244000  1
  N  N342  1  0.11453000  0.02929000  0.67210000  1
  N  N343  1  0.11453000  0.47071000  0.32790000  1
  N  N344  1  0.11420000  0.87130000  0.99698000  1
  N  N345  1  0.11420000  0.62870000  0.00302000  1
  N  N346  1  0.10420000  0.54290000  0.82373000  1
  N  N347  1  0.10420000  0.95710000  0.17627000  1
  N  N348  1  0.06073000  0.01512000  0.72169000  1
  N  N349  1  0.06073000  0.48488000  0.27831000  1
  N  N350  1  0.03320000  0.56520000  0.86400000  1
  N  N351  1  0.03320000  0.93480000  0.13600000  1
