# generated using pymatgen
data_Zn2B2H48C55N6(O2F)4
_symmetry_space_group_name_H-M   'P 1'
_cell_length_a   14.82300000
_cell_length_b   14.82300000
_cell_length_c   16.02860000
_cell_angle_alpha   83.25470000
_cell_angle_beta   83.25470000
_cell_angle_gamma   86.87580000
_symmetry_Int_Tables_number   1
_chemical_formula_structural   Zn2B2H48C55N6(O2F)4
_chemical_formula_sum   'Zn4 B4 H96 C110 N12 O16 F8'
_cell_volume   3470.27887836
_cell_formula_units_Z   2
loop_
 _symmetry_equiv_pos_site_id
 _symmetry_equiv_pos_as_xyz
  1  'x, y, z'
loop_
 _atom_site_type_symbol
 _atom_site_label
 _atom_site_symmetry_multiplicity
 _atom_site_fract_x
 _atom_site_fract_y
 _atom_site_fract_z
 _atom_site_occupancy
  Zn  Zn0  1  0.12328000  0.89604000  0.65597000  1
  Zn  Zn1  1  0.10396000  0.87672000  0.84403000  1
  Zn  Zn2  1  0.89604000  0.12328000  0.15597000  1
  Zn  Zn3  1  0.87672000  0.10396000  0.34403000  1
  B  B4  1  0.59490000  0.91910000  0.85810000  1
  B  B5  1  0.91910000  0.59490000  0.35810000  1
  B  B6  1  0.08090000  0.40510000  0.64190000  1
  B  B7  1  0.40510000  0.08090000  0.14190000  1
  H  H8  1  0.23940000  0.99580000  0.08310000  1
  H  H9  1  0.07190000  0.97610000  0.47630000  1
  H  H10  1  0.43220000  0.96360000  0.92930000  1
  H  H11  1  0.33460000  0.96300000  0.90100000  1
  H  H12  1  0.67900000  0.96180000  0.53730000  1
  H  H13  1  0.12030000  0.95930000  0.33730000  1
  H  H14  1  0.83960000  0.93140000  0.93170000  1
  H  H15  1  0.02390000  0.92810000  0.02370000  1
  H  H16  1  0.70980000  0.92140000  0.40190000  1
  H  H17  1  0.73860000  0.90680000  0.96170000  1
  H  H18  1  0.79370000  0.90350000  0.14010000  1
  H  H19  1  0.48170000  0.89630000  0.55660000  1
  H  H20  1  0.22800000  0.89400000  0.23000000  1
  H  H21  1  0.04070000  0.87970000  0.16270000  1
  H  H22  1  0.37890000  0.87910000  0.58690000  1
  H  H23  1  0.37940000  0.87340000  0.94280000  1
  H  H24  1  0.85400000  0.86900000  0.58260000  1
  H  H25  1  0.32220000  0.86160000  0.26100000  1
  H  H26  1  0.86900000  0.85400000  0.08260000  1
  H  H27  1  0.93140000  0.83960000  0.43170000  1
  H  H28  1  0.77560000  0.80900000  0.11180000  1
  H  H29  1  0.45110000  0.79770000  0.58970000  1
  H  H30  1  0.90350000  0.79370000  0.64010000  1
  H  H31  1  0.24820000  0.79020000  0.55290000  1
  H  H32  1  0.30690000  0.77590000  0.41650000  1
  H  H33  1  0.80900000  0.77560000  0.61180000  1
  H  H34  1  0.10600000  0.77200000  0.27000000  1
  H  H35  1  0.70430000  0.77110000  0.37820000  1
  H  H36  1  0.00420000  0.76060000  0.41690000  1
  H  H37  1  0.20980000  0.75180000  0.94710000  1
  H  H38  1  0.28640000  0.74280000  0.20200000  1
  H  H39  1  0.90680000  0.73860000  0.46170000  1
  H  H40  1  0.25720000  0.71360000  0.29800000  1
  H  H41  1  0.92140000  0.70980000  0.90190000  1
  H  H42  1  0.77110000  0.70430000  0.87820000  1
  H  H43  1  0.61930000  0.70390000  0.62400000  1
  H  H44  1  0.22410000  0.69310000  0.08350000  1
  H  H45  1  0.96180000  0.67900000  0.03730000  1
  H  H46  1  0.13840000  0.67780000  0.23900000  1
  H  H47  1  0.03700000  0.66540000  0.59900000  1
  H  H48  1  0.65570000  0.66310000  0.48850000  1
  H  H49  1  0.66310000  0.65570000  0.98850000  1
  H  H50  1  0.12090000  0.62110000  0.91310000  1
  H  H51  1  0.12660000  0.62060000  0.55720000  1
  H  H52  1  0.70390000  0.61930000  0.12400000  1
  H  H53  1  0.03640000  0.56780000  0.57070000  1
  H  H54  1  0.20230000  0.54890000  0.91030000  1
  H  H55  1  0.10370000  0.51830000  0.94340000  1
  H  H56  1  0.89630000  0.48170000  0.05660000  1
  H  H57  1  0.79770000  0.45110000  0.08970000  1
  H  H58  1  0.96360000  0.43220000  0.42930000  1
  H  H59  1  0.29610000  0.38070000  0.87600000  1
  H  H60  1  0.87340000  0.37940000  0.44280000  1
  H  H61  1  0.87910000  0.37890000  0.08690000  1
  H  H62  1  0.33690000  0.34430000  0.01150000  1
  H  H63  1  0.34430000  0.33690000  0.51150000  1
  H  H64  1  0.96300000  0.33460000  0.40100000  1
  H  H65  1  0.86160000  0.32220000  0.76100000  1
  H  H66  1  0.03820000  0.32100000  0.96270000  1
  H  H67  1  0.77590000  0.30690000  0.91650000  1
  H  H68  1  0.38070000  0.29610000  0.37600000  1
  H  H69  1  0.22890000  0.29570000  0.12180000  1
  H  H70  1  0.07860000  0.29020000  0.09810000  1
  H  H71  1  0.74280000  0.28640000  0.70200000  1
  H  H72  1  0.09320000  0.26140000  0.53830000  1
  H  H73  1  0.71360000  0.25720000  0.79800000  1
  H  H74  1  0.79020000  0.24820000  0.05290000  1
  H  H75  1  0.99580000  0.23940000  0.58310000  1
  H  H76  1  0.29570000  0.22890000  0.62180000  1
  H  H77  1  0.89400000  0.22800000  0.73000000  1
  H  H78  1  0.19100000  0.22440000  0.38820000  1
  H  H79  1  0.69310000  0.22410000  0.58350000  1
  H  H80  1  0.75180000  0.20980000  0.44710000  1
  H  H81  1  0.09650000  0.20630000  0.35990000  1
  H  H82  1  0.54890000  0.20230000  0.41030000  1
  H  H83  1  0.22440000  0.19100000  0.88820000  1
  H  H84  1  0.06860000  0.16040000  0.56830000  1
  H  H85  1  0.13100000  0.14600000  0.91740000  1
  H  H86  1  0.67780000  0.13840000  0.73900000  1
  H  H87  1  0.14600000  0.13100000  0.41740000  1
  H  H88  1  0.62060000  0.12660000  0.05720000  1
  H  H89  1  0.62110000  0.12090000  0.41310000  1
  H  H90  1  0.95930000  0.12030000  0.83730000  1
  H  H91  1  0.77200000  0.10600000  0.77000000  1
  H  H92  1  0.51830000  0.10370000  0.44340000  1
  H  H93  1  0.20630000  0.09650000  0.85990000  1
  H  H94  1  0.26140000  0.09320000  0.03830000  1
  H  H95  1  0.29020000  0.07860000  0.59810000  1
  H  H96  1  0.97610000  0.07190000  0.97630000  1
  H  H97  1  0.16040000  0.06860000  0.06830000  1
  H  H98  1  0.87970000  0.04070000  0.66270000  1
  H  H99  1  0.32100000  0.03820000  0.46270000  1
  H  H100  1  0.66540000  0.03700000  0.09900000  1
  H  H101  1  0.56780000  0.03640000  0.07070000  1
  H  H102  1  0.92810000  0.02390000  0.52370000  1
  H  H103  1  0.76060000  0.00420000  0.91690000  1
  C  C104  1  0.77800000  0.94060000  0.91880000  1
  C  C105  1  0.88870000  0.93910000  0.27530000  1
  C  C106  1  0.11930000  0.93410000  0.46440000  1
  C  C107  1  0.39070000  0.92850000  0.90610000  1
  C  C108  1  0.14870000  0.92510000  0.38000000  1
  C  C109  1  0.77020000  0.90900000  0.83530000  1
  C  C110  1  0.43090000  0.90610000  0.82150000  1
  C  C111  1  0.67400000  0.90180000  0.52760000  1
  C  C112  1  0.38800000  0.89140000  0.75030000  1
  C  C113  1  0.93910000  0.88870000  0.77530000  1
  C  C114  1  0.28788000  0.88788000  0.75040000  1
  C  C115  1  0.83950000  0.88430000  0.77270000  1
  C  C116  1  0.06590000  0.88070000  0.03560000  1
  C  C117  1  0.53960000  0.87940000  0.71760000  1
  C  C118  1  0.69340000  0.87740000  0.44670000  1
  C  C119  1  0.45520000  0.87640000  0.68410000  1
  C  C120  1  0.70330000  0.87070000  0.72780000  1
  C  C121  1  0.21960000  0.86560000  0.36040000  1
  C  C122  1  0.62840000  0.86260000  0.68220000  1
  C  C123  1  0.44040000  0.86100000  0.59650000  1
  C  C124  1  0.79830000  0.85830000  0.70500000  1
  C  C125  1  0.07490000  0.85130000  0.12000000  1
  C  C126  1  0.25770000  0.85050000  0.26920000  1
  C  C127  1  0.82080000  0.84540000  0.12790000  1
  C  C128  1  0.88430000  0.83950000  0.27270000  1
  C  C129  1  0.64710000  0.83690000  0.59480000  1
  C  C130  1  0.22320000  0.82640000  0.50930000  1
  C  C131  1  0.84540000  0.82080000  0.62790000  1
  C  C132  1  0.25770000  0.81610000  0.42720000  1
  C  C133  1  0.85830000  0.79830000  0.20500000  1
  C  C134  1  0.68860000  0.78800000  0.43230000  1
  C  C135  1  0.13440000  0.78040000  0.13960000  1
  C  C136  1  0.94060000  0.77800000  0.41880000  1
  C  C137  1  0.17360000  0.77680000  0.99070000  1
  C  C138  1  0.90900000  0.77020000  0.33530000  1
  C  C139  1  0.24370000  0.75630000  0.25000000  1
  C  C140  1  0.63900000  0.74740000  0.57980000  1
  C  C141  1  0.18390000  0.74230000  0.07280000  1
  C  C142  1  0.14950000  0.74230000  0.23080000  1
  C  C143  1  0.66030000  0.72310000  0.49860000  1
  C  C144  1  0.11212000  0.71212000  0.74960000  1
  C  C145  1  0.87070000  0.70330000  0.22780000  1
  C  C146  1  0.87740000  0.69340000  0.94670000  1
  C  C147  1  0.78800000  0.68860000  0.93230000  1
  C  C148  1  0.90180000  0.67400000  0.02760000  1
  C  C149  1  0.72310000  0.66030000  0.99860000  1
  C  C150  1  0.83690000  0.64710000  0.09480000  1
  C  C151  1  0.74740000  0.63900000  0.07980000  1
  C  C152  1  0.86260000  0.62840000  0.18220000  1
  C  C153  1  0.10860000  0.61200000  0.74970000  1
  C  C154  1  0.07150000  0.60930000  0.59390000  1
  C  C155  1  0.09390000  0.56910000  0.67850000  1
  C  C156  1  0.13900000  0.55960000  0.90350000  1
  C  C157  1  0.12360000  0.54480000  0.81590000  1
  C  C158  1  0.87940000  0.53960000  0.21760000  1
  C  C159  1  0.12060000  0.46040000  0.78240000  1
  C  C160  1  0.87640000  0.45520000  0.18410000  1
  C  C161  1  0.86100000  0.44040000  0.09650000  1
  C  C162  1  0.90610000  0.43090000  0.32150000  1
  C  C163  1  0.92850000  0.39070000  0.40610000  1
  C  C164  1  0.89140000  0.38800000  0.25030000  1
  C  C165  1  0.13740000  0.37160000  0.81780000  1
  C  C166  1  0.25260000  0.36100000  0.92020000  1
  C  C167  1  0.16310000  0.35290000  0.90520000  1
  C  C168  1  0.27690000  0.33970000  0.00140000  1
  C  C169  1  0.09820000  0.32600000  0.97240000  1
  C  C170  1  0.21200000  0.31140000  0.06770000  1
  C  C171  1  0.12260000  0.30660000  0.05330000  1
  C  C172  1  0.12930000  0.29670000  0.77220000  1
  C  C173  1  0.88788000  0.28788000  0.25040000  1
  C  C174  1  0.33970000  0.27690000  0.50140000  1
  C  C175  1  0.85050000  0.25770000  0.76920000  1
  C  C176  1  0.81610000  0.25770000  0.92720000  1
  C  C177  1  0.36100000  0.25260000  0.42020000  1
  C  C178  1  0.75630000  0.24370000  0.75000000  1
  C  C179  1  0.09100000  0.22980000  0.66470000  1
  C  C180  1  0.82640000  0.22320000  0.00930000  1
  C  C181  1  0.05940000  0.22200000  0.58120000  1
  C  C182  1  0.86560000  0.21960000  0.86040000  1
  C  C183  1  0.31140000  0.21200000  0.56770000  1
  C  C184  1  0.14170000  0.20170000  0.79500000  1
  C  C185  1  0.74230000  0.18390000  0.57280000  1
  C  C186  1  0.15460000  0.17920000  0.37210000  1
  C  C187  1  0.77680000  0.17360000  0.49070000  1
  C  C188  1  0.35290000  0.16310000  0.40520000  1
  C  C189  1  0.11570000  0.16050000  0.72730000  1
  C  C190  1  0.17920000  0.15460000  0.87210000  1
  C  C191  1  0.74230000  0.14950000  0.73080000  1
  C  C192  1  0.92510000  0.14870000  0.88000000  1
  C  C193  1  0.20170000  0.14170000  0.29500000  1
  C  C194  1  0.55960000  0.13900000  0.40350000  1
  C  C195  1  0.37160000  0.13740000  0.31780000  1
  C  C196  1  0.78040000  0.13440000  0.63960000  1
  C  C197  1  0.29670000  0.12930000  0.27220000  1
  C  C198  1  0.54480000  0.12360000  0.31590000  1
  C  C199  1  0.30660000  0.12260000  0.55330000  1
  C  C200  1  0.46040000  0.12060000  0.28240000  1
  C  C201  1  0.93410000  0.11930000  0.96440000  1
  C  C202  1  0.16050000  0.11570000  0.22730000  1
  C  C203  1  0.71212000  0.11212000  0.24960000  1
  C  C204  1  0.06090000  0.11130000  0.22470000  1
  C  C205  1  0.61200000  0.10860000  0.24970000  1
  C  C206  1  0.32600000  0.09820000  0.47240000  1
  C  C207  1  0.56910000  0.09390000  0.17850000  1
  C  C208  1  0.22980000  0.09100000  0.16470000  1
  C  C209  1  0.85130000  0.07490000  0.62000000  1
  C  C210  1  0.60930000  0.07150000  0.09390000  1
  C  C211  1  0.88070000  0.06590000  0.53560000  1
  C  C212  1  0.11130000  0.06090000  0.72470000  1
  C  C213  1  0.22200000  0.05940000  0.08120000  1
  N  N214  1  0.68866000  0.90110000  0.80820000  1
  N  N215  1  0.52205000  0.89979000  0.80070000  1
  N  N216  1  0.15462000  0.88652000  0.52900000  1
  N  N217  1  0.11348000  0.84538000  0.97100000  1
  N  N218  1  0.90110000  0.68866000  0.30820000  1
  N  N219  1  0.89979000  0.52205000  0.30070000  1
  N  N220  1  0.10021000  0.47795000  0.69930000  1
  N  N221  1  0.09890000  0.31134000  0.69180000  1
  N  N222  1  0.88652000  0.15462000  0.02900000  1
  N  N223  1  0.84538000  0.11348000  0.47100000  1
  N  N224  1  0.47795000  0.10021000  0.19930000  1
  N  N225  1  0.31134000  0.09890000  0.19180000  1
  O  O226  1  0.89006000  0.98870000  0.20570000  1
  O  O227  1  0.89104000  0.96734000  0.34690000  1
  O  O228  1  0.25531000  0.90341000  0.68010000  1
  O  O229  1  0.96734000  0.89104000  0.84690000  1
  O  O230  1  0.98870000  0.89006000  0.70570000  1
  O  O231  1  0.24172000  0.86994000  0.82120000  1
  O  O232  1  0.13006000  0.75828000  0.67880000  1
  O  O233  1  0.09659000  0.74469000  0.81990000  1
  O  O234  1  0.90341000  0.25531000  0.18010000  1
  O  O235  1  0.86994000  0.24172000  0.32120000  1
  O  O236  1  0.75828000  0.13006000  0.17880000  1
  O  O237  1  0.01130000  0.10994000  0.29430000  1
  O  O238  1  0.03266000  0.10896000  0.15310000  1
  O  O239  1  0.74469000  0.09659000  0.31990000  1
  O  O240  1  0.10896000  0.03266000  0.65310000  1
  O  O241  1  0.10994000  0.01130000  0.79430000  1
  F  F242  1  0.41354000  0.99086000  0.12570000  1
  F  F243  1  0.58549000  0.86185000  0.93300000  1
  F  F244  1  0.00914000  0.58646000  0.37430000  1
  F  F245  1  0.86185000  0.58549000  0.43300000  1
  F  F246  1  0.13815000  0.41451000  0.56700000  1
  F  F247  1  0.99086000  0.41354000  0.62570000  1
  F  F248  1  0.41451000  0.13815000  0.06700000  1
  F  F249  1  0.58646000  0.00914000  0.87430000  1
