# generated using pymatgen
data_Gd2Cu3H24(C4O5)6
_symmetry_space_group_name_H-M   'P 1'
_cell_length_a   14.47830000
_cell_length_b   14.47830000
_cell_length_c   15.29300000
_cell_angle_alpha   90.00000000
_cell_angle_beta   90.00000000
_cell_angle_gamma   120.00000000
_symmetry_Int_Tables_number   1
_chemical_formula_structural   Gd2Cu3H24(C4O5)6
_chemical_formula_sum   'Gd4 Cu6 H48 C48 O60'
_cell_volume   2776.24930436
_cell_formula_units_Z   2
loop_
 _symmetry_equiv_pos_site_id
 _symmetry_equiv_pos_as_xyz
  1  'x, y, z'
loop_
 _atom_site_type_symbol
 _atom_site_label
 _atom_site_symmetry_multiplicity
 _atom_site_fract_x
 _atom_site_fract_y
 _atom_site_fract_z
 _atom_site_occupancy
  Gd  Gd0  1  0.66666667  0.33333333  0.75000000  1
  Gd  Gd1  1  0.66666667  0.33333333  0.25000000  1
  Gd  Gd2  1  0.33333333  0.66666667  0.75000000  1
  Gd  Gd3  1  0.33333333  0.66666667  0.25000000  1
  Cu  Cu4  1  0.00000000  0.50000000  1.00000000  1
  Cu  Cu5  1  0.00000000  0.50000000  0.50000000  1
  Cu  Cu6  1  0.50000000  0.50000000  0.00000000  1
  Cu  Cu7  1  0.50000000  0.50000000  0.50000000  1
  Cu  Cu8  1  0.50000000  0.00000000  0.00000000  1
  Cu  Cu9  1  0.50000000  0.00000000  0.50000000  1
  H  H10  1  0.91870000  0.28080000  0.73120000  1
  H  H11  1  0.91870000  0.28080000  0.26880000  1
  H  H12  1  0.91870000  0.63790000  0.76880000  1
  H  H13  1  0.91870000  0.63790000  0.23120000  1
  H  H14  1  0.84010000  0.19760000  0.65910000  1
  H  H15  1  0.84010000  0.19760000  0.34090000  1
  H  H16  1  0.84010000  0.64250000  0.84090000  1
  H  H17  1  0.84010000  0.64250000  0.15910000  1
  H  H18  1  0.80240000  0.15990000  0.84090000  1
  H  H19  1  0.80240000  0.15990000  0.15910000  1
  H  H20  1  0.80240000  0.64250000  0.65910000  1
  H  H21  1  0.80240000  0.64250000  0.34090000  1
  H  H22  1  0.71920000  0.08130000  0.76880000  1
  H  H23  1  0.71920000  0.08130000  0.23120000  1
  H  H24  1  0.71920000  0.63790000  0.73120000  1
  H  H25  1  0.71920000  0.63790000  0.26880000  1
  H  H26  1  0.64250000  0.80240000  0.84090000  1
  H  H27  1  0.64250000  0.80240000  0.15910000  1
  H  H28  1  0.64250000  0.84010000  0.65910000  1
  H  H29  1  0.64250000  0.84010000  0.34090000  1
  H  H30  1  0.63790000  0.71920000  0.76880000  1
  H  H31  1  0.63790000  0.71920000  0.23120000  1
  H  H32  1  0.63790000  0.91870000  0.73120000  1
  H  H33  1  0.63790000  0.91870000  0.26880000  1
  H  H34  1  0.36210000  0.08130000  0.73120000  1
  H  H35  1  0.36210000  0.08130000  0.26880000  1
  H  H36  1  0.36210000  0.28080000  0.76880000  1
  H  H37  1  0.36210000  0.28080000  0.23120000  1
  H  H38  1  0.35750000  0.15990000  0.65910000  1
  H  H39  1  0.35750000  0.15990000  0.34090000  1
  H  H40  1  0.35750000  0.19760000  0.84090000  1
  H  H41  1  0.35750000  0.19760000  0.15910000  1
  H  H42  1  0.28080000  0.36210000  0.73120000  1
  H  H43  1  0.28080000  0.36210000  0.26880000  1
  H  H44  1  0.28080000  0.91870000  0.76880000  1
  H  H45  1  0.28080000  0.91870000  0.23120000  1
  H  H46  1  0.19760000  0.35750000  0.65910000  1
  H  H47  1  0.19760000  0.35750000  0.34090000  1
  H  H48  1  0.19760000  0.84010000  0.84090000  1
  H  H49  1  0.19760000  0.84010000  0.15910000  1
  H  H50  1  0.15990000  0.35750000  0.84090000  1
  H  H51  1  0.15990000  0.35750000  0.15910000  1
  H  H52  1  0.15990000  0.80240000  0.65910000  1
  H  H53  1  0.15990000  0.80240000  0.34090000  1
  H  H54  1  0.08130000  0.36210000  0.76880000  1
  H  H55  1  0.08130000  0.36210000  0.23120000  1
  H  H56  1  0.08130000  0.71920000  0.73120000  1
  H  H57  1  0.08130000  0.71920000  0.26880000  1
  C  C58  1  0.86890000  0.35240000  0.63810000  1
  C  C59  1  0.86890000  0.35240000  0.36190000  1
  C  C60  1  0.86890000  0.51650000  0.86190000  1
  C  C61  1  0.86890000  0.51650000  0.13810000  1
  C  C62  1  0.85410000  0.25990000  0.69540000  1
  C  C63  1  0.85410000  0.25990000  0.30460000  1
  C  C64  1  0.85410000  0.59420000  0.80460000  1
  C  C65  1  0.85410000  0.59420000  0.19540000  1
  C  C66  1  0.74010000  0.14590000  0.80460000  1
  C  C67  1  0.74010000  0.14590000  0.19540000  1
  C  C68  1  0.74010000  0.59420000  0.69540000  1
  C  C69  1  0.74010000  0.59420000  0.30460000  1
  C  C70  1  0.64760000  0.13110000  0.86190000  1
  C  C71  1  0.64760000  0.13110000  0.13810000  1
  C  C72  1  0.64760000  0.51650000  0.63810000  1
  C  C73  1  0.64760000  0.51650000  0.36190000  1
  C  C74  1  0.59420000  0.74010000  0.80460000  1
  C  C75  1  0.59420000  0.74010000  0.19540000  1
  C  C76  1  0.59420000  0.85410000  0.69540000  1
  C  C77  1  0.59420000  0.85410000  0.30460000  1
  C  C78  1  0.51650000  0.64760000  0.86190000  1
  C  C79  1  0.51650000  0.64760000  0.13810000  1
  C  C80  1  0.51650000  0.86890000  0.63810000  1
  C  C81  1  0.51650000  0.86890000  0.36190000  1
  C  C82  1  0.48350000  0.13110000  0.63810000  1
  C  C83  1  0.48350000  0.13110000  0.36190000  1
  C  C84  1  0.48350000  0.35240000  0.86190000  1
  C  C85  1  0.48350000  0.35240000  0.13810000  1
  C  C86  1  0.40580000  0.14590000  0.69540000  1
  C  C87  1  0.40580000  0.14590000  0.30460000  1
  C  C88  1  0.40580000  0.25990000  0.80460000  1
  C  C89  1  0.40580000  0.25990000  0.19540000  1
  C  C90  1  0.35240000  0.48350000  0.63810000  1
  C  C91  1  0.35240000  0.48350000  0.36190000  1
  C  C92  1  0.35240000  0.86890000  0.86190000  1
  C  C93  1  0.35240000  0.86890000  0.13810000  1
  C  C94  1  0.25990000  0.40580000  0.69540000  1
  C  C95  1  0.25990000  0.40580000  0.30460000  1
  C  C96  1  0.25990000  0.85410000  0.80460000  1
  C  C97  1  0.25990000  0.85410000  0.19540000  1
  C  C98  1  0.14590000  0.40580000  0.80460000  1
  C  C99  1  0.14590000  0.40580000  0.19540000  1
  C  C100  1  0.14590000  0.74010000  0.69540000  1
  C  C101  1  0.14590000  0.74010000  0.30460000  1
  C  C102  1  0.13110000  0.48350000  0.86190000  1
  C  C103  1  0.13110000  0.48350000  0.13810000  1
  C  C104  1  0.13110000  0.64760000  0.63810000  1
  C  C105  1  0.13110000  0.64760000  0.36190000  1
  O  O106  1  0.94670000  0.38650000  0.58990000  1
  O  O107  1  0.94670000  0.38650000  0.41010000  1
  O  O108  1  0.94670000  0.56020000  0.91010000  1
  O  O109  1  0.94670000  0.56020000  0.08990000  1
  O  O110  1  0.80580000  0.38620000  0.64440000  1
  O  O111  1  0.80580000  0.38620000  0.35560000  1
  O  O112  1  0.80580000  0.41960000  0.85560000  1
  O  O113  1  0.80580000  0.41960000  0.14440000  1
  O  O114  1  0.76480000  0.23520000  0.75000000  1
  O  O115  1  0.76480000  0.23520000  0.25000000  1
  O  O116  1  0.76480000  0.52960000  0.75000000  1
  O  O117  1  0.76480000  0.52960000  0.25000000  1
  O  O118  1  0.61380000  0.19420000  0.85560000  1
  O  O119  1  0.61380000  0.19420000  0.14440000  1
  O  O120  1  0.61380000  0.41960000  0.64440000  1
  O  O121  1  0.61380000  0.41960000  0.35560000  1
  O  O122  1  0.61350000  0.05330000  0.91010000  1
  O  O123  1  0.61350000  0.05330000  0.08990000  1
  O  O124  1  0.61350000  0.56020000  0.58990000  1
  O  O125  1  0.61350000  0.56020000  0.41010000  1
  O  O126  1  0.58040000  0.19420000  0.64440000  1
  O  O127  1  0.58040000  0.19420000  0.35560000  1
  O  O128  1  0.58040000  0.38620000  0.85560000  1
  O  O129  1  0.58040000  0.38620000  0.14440000  1
  O  O130  1  0.56020000  0.61350000  0.91010000  1
  O  O131  1  0.56020000  0.61350000  0.08990000  1
  O  O132  1  0.56020000  0.94670000  0.58990000  1
  O  O133  1  0.56020000  0.94670000  0.41010000  1
  O  O134  1  0.52960000  0.76480000  0.75000000  1
  O  O135  1  0.52960000  0.76480000  0.25000000  1
  O  O136  1  0.47040000  0.23520000  0.75000000  1
  O  O137  1  0.47040000  0.23520000  0.25000000  1
  O  O138  1  0.43980000  0.05330000  0.58990000  1
  O  O139  1  0.43980000  0.05330000  0.41010000  1
  O  O140  1  0.43980000  0.38650000  0.91010000  1
  O  O141  1  0.43980000  0.38650000  0.08990000  1
  O  O142  1  0.41960000  0.61380000  0.85560000  1
  O  O143  1  0.41960000  0.61380000  0.14440000  1
  O  O144  1  0.41960000  0.80580000  0.64440000  1
  O  O145  1  0.41960000  0.80580000  0.35560000  1
  O  O146  1  0.38650000  0.43980000  0.58990000  1
  O  O147  1  0.38650000  0.43980000  0.41010000  1
  O  O148  1  0.38650000  0.94670000  0.91010000  1
  O  O149  1  0.38650000  0.94670000  0.08990000  1
  O  O150  1  0.38620000  0.58040000  0.64440000  1
  O  O151  1  0.38620000  0.58040000  0.35560000  1
  O  O152  1  0.38620000  0.80580000  0.85560000  1
  O  O153  1  0.38620000  0.80580000  0.14440000  1
  O  O154  1  0.23520000  0.47040000  0.75000000  1
  O  O155  1  0.23520000  0.47040000  0.25000000  1
  O  O156  1  0.23520000  0.76480000  0.75000000  1
  O  O157  1  0.23520000  0.76480000  0.25000000  1
  O  O158  1  0.19420000  0.58040000  0.85560000  1
  O  O159  1  0.19420000  0.58040000  0.14440000  1
  O  O160  1  0.19420000  0.61380000  0.64440000  1
  O  O161  1  0.19420000  0.61380000  0.35560000  1
  O  O162  1  0.05330000  0.43980000  0.91010000  1
  O  O163  1  0.05330000  0.43980000  0.08990000  1
  O  O164  1  0.05330000  0.61350000  0.58990000  1
  O  O165  1  0.05330000  0.61350000  0.41010000  1
