# generated using pymatgen
data_ZnH6(CN2)4
_symmetry_space_group_name_H-M   'P 1'
_cell_length_a   10.20400000
_cell_length_b   10.20400000
_cell_length_c   13.09980000
_cell_angle_alpha   90.00000000
_cell_angle_beta   90.00000000
_cell_angle_gamma   90.00000000
_symmetry_Int_Tables_number   1
_chemical_formula_structural   ZnH6(CN2)4
_chemical_formula_sum   'Zn4 H24 C16 N32'
_cell_volume   1363.97234528
_cell_formula_units_Z   4
loop_
 _symmetry_equiv_pos_site_id
 _symmetry_equiv_pos_as_xyz
  1  'x, y, z'
loop_
 _atom_site_type_symbol
 _atom_site_label
 _atom_site_symmetry_multiplicity
 _atom_site_fract_x
 _atom_site_fract_y
 _atom_site_fract_z
 _atom_site_occupancy
  Zn  Zn0  1  0.23031000  0.76969000  0.25000000  1
  Zn  Zn1  1  0.26969000  0.26969000  0.00000000  1
  Zn  Zn2  1  0.73031000  0.73031000  0.50000000  1
  Zn  Zn3  1  0.76969000  0.23031000  0.75000000  1
  H  H4  1  0.01150000  0.63090000  0.51650000  1
  H  H5  1  0.04680000  0.12150000  0.69760000  1
  H  H6  1  0.12150000  0.04680000  0.30240000  1
  H  H7  1  0.13090000  0.48850000  0.26650000  1
  H  H8  1  0.13620000  0.64210000  0.45810000  1
  H  H9  1  0.14210000  0.36380000  0.20810000  1
  H  H10  1  0.35790000  0.86380000  0.04190000  1
  H  H11  1  0.36380000  0.14210000  0.79190000  1
  H  H12  1  0.36910000  0.98850000  0.98350000  1
  H  H13  1  0.37850000  0.54680000  0.94760000  1
  H  H14  1  0.45320000  0.62150000  0.55240000  1
  H  H15  1  0.48850000  0.13090000  0.73350000  1
  H  H16  1  0.51150000  0.86910000  0.23350000  1
  H  H17  1  0.54680000  0.37850000  0.05240000  1
  H  H18  1  0.62150000  0.45320000  0.44760000  1
  H  H19  1  0.63090000  0.01150000  0.48350000  1
  H  H20  1  0.63620000  0.85790000  0.29190000  1
  H  H21  1  0.64210000  0.13620000  0.54190000  1
  H  H22  1  0.85790000  0.63620000  0.70810000  1
  H  H23  1  0.86380000  0.35790000  0.95810000  1
  H  H24  1  0.86910000  0.51150000  0.76650000  1
  H  H25  1  0.87850000  0.95320000  0.80240000  1
  H  H26  1  0.95320000  0.87850000  0.19760000  1
  H  H27  1  0.98850000  0.36910000  0.01650000  1
  C  C28  1  0.00900000  0.27130000  0.89020000  1
  C  C29  1  0.05400000  0.16490000  0.75980000  1
  C  C30  1  0.16490000  0.05400000  0.24020000  1
  C  C31  1  0.22870000  0.50900000  0.14020000  1
  C  C32  1  0.27130000  0.00900000  0.10980000  1
  C  C33  1  0.33510000  0.55400000  0.00980000  1
  C  C34  1  0.44600000  0.66490000  0.49020000  1
  C  C35  1  0.49100000  0.77130000  0.35980000  1
  C  C36  1  0.50900000  0.22870000  0.85980000  1
  C  C37  1  0.55400000  0.33510000  0.99020000  1
  C  C38  1  0.66490000  0.44600000  0.50980000  1
  C  C39  1  0.72870000  0.99100000  0.60980000  1
  C  C40  1  0.77130000  0.49100000  0.64020000  1
  C  C41  1  0.83510000  0.94600000  0.74020000  1
  C  C42  1  0.94600000  0.83510000  0.25980000  1
  C  C43  1  0.99100000  0.72870000  0.39020000  1
  N  N44  1  0.04800000  0.77410000  0.30770000  1
  N  N45  1  0.05400000  0.65860000  0.46410000  1
  N  N46  1  0.13330000  0.24740000  0.90040000  1
  N  N47  1  0.15860000  0.44600000  0.21410000  1
  N  N48  1  0.16300000  0.17430000  0.81090000  1
  N  N49  1  0.17430000  0.16300000  0.18910000  1
  N  N50  1  0.22590000  0.95200000  0.19230000  1
  N  N51  1  0.24740000  0.13330000  0.09960000  1
  N  N52  1  0.25260000  0.63330000  0.15040000  1
  N  N53  1  0.27410000  0.45200000  0.05770000  1
  N  N54  1  0.32570000  0.66300000  0.06090000  1
  N  N55  1  0.33700000  0.67430000  0.43910000  1
  N  N56  1  0.34140000  0.94600000  0.03590000  1
  N  N57  1  0.36670000  0.74740000  0.34960000  1
  N  N58  1  0.44600000  0.15860000  0.78590000  1
  N  N59  1  0.45200000  0.27410000  0.94230000  1
  N  N60  1  0.54800000  0.72590000  0.44230000  1
  N  N61  1  0.55400000  0.84140000  0.28590000  1
  N  N62  1  0.63330000  0.25260000  0.84960000  1
  N  N63  1  0.65860000  0.05400000  0.53590000  1
  N  N64  1  0.66300000  0.32570000  0.93910000  1
  N  N65  1  0.67430000  0.33700000  0.56090000  1
  N  N66  1  0.72590000  0.54800000  0.55770000  1
  N  N67  1  0.74740000  0.36670000  0.65040000  1
  N  N68  1  0.75260000  0.86670000  0.59960000  1
  N  N69  1  0.77410000  0.04800000  0.69230000  1
  N  N70  1  0.82570000  0.83700000  0.68910000  1
  N  N71  1  0.83700000  0.82570000  0.31090000  1
  N  N72  1  0.84140000  0.55400000  0.71410000  1
  N  N73  1  0.86670000  0.75260000  0.40040000  1
  N  N74  1  0.94600000  0.34140000  0.96410000  1
  N  N75  1  0.95200000  0.22590000  0.80770000  1
