# generated using pymatgen
data_Cr2CoH40C40N4O3
_symmetry_space_group_name_H-M   'P 1'
_cell_length_a   9.10910000
_cell_length_b   15.23240000
_cell_length_c   15.58700000
_cell_angle_alpha   102.77100000
_cell_angle_beta   95.33500000
_cell_angle_gamma   104.33000000
_symmetry_Int_Tables_number   1
_chemical_formula_structural   Cr2CoH40C40N4O3
_chemical_formula_sum   'Cr4 Co2 H80 C80 N8 O6'
_cell_volume   2018.50298436
_cell_formula_units_Z   2
loop_
 _symmetry_equiv_pos_site_id
 _symmetry_equiv_pos_as_xyz
  1  'x, y, z'
loop_
 _atom_site_type_symbol
 _atom_site_label
 _atom_site_symmetry_multiplicity
 _atom_site_fract_x
 _atom_site_fract_y
 _atom_site_fract_z
 _atom_site_occupancy
  Cr  Cr0  1  0.14003000  0.82372000  0.71749000  1
  Cr  Cr1  1  0.17441000  0.34802000  0.30495000  1
  Cr  Cr2  1  0.82559000  0.65198000  0.69505000  1
  Cr  Cr3  1  0.85997000  0.17628000  0.28251000  1
  Co  Co4  1  0.49195000  0.74626000  0.71633000  1
  Co  Co5  1  0.50805000  0.25374000  0.28367000  1
  H  H6  1  0.00530000  0.47180000  0.64310000  1
  H  H7  1  0.02720000  0.23820000  0.93070000  1
  H  H8  1  0.04200000  0.00650000  0.31090000  1
  H  H9  1  0.04300000  0.71820000  0.49190000  1
  H  H10  1  0.04530000  0.38700000  0.92360000  1
  H  H11  1  0.05030000  0.93190000  0.46350000  1
  H  H12  1  0.08310000  0.22520000  0.51000000  1
  H  H13  1  0.10120000  0.45880000  0.86450000  1
  H  H14  1  0.11010000  0.85290000  0.11750000  1
  H  H15  1  0.13130000  0.33620000  0.55110000  1
  H  H16  1  0.14390000  0.75320000  0.08760000  1
  H  H17  1  0.16300000  0.87580000  0.49550000  1
  H  H18  1  0.16750000  0.11770000  0.81840000  1
  H  H19  1  0.16830000  0.61330000  0.63580000  1
  H  H20  1  0.17720000  0.57400000  0.20530000  1
  H  H21  1  0.18050000  0.10960000  0.65050000  1
  H  H22  1  0.19710000  0.15210000  0.31520000  1
  H  H23  1  0.20480000  0.58760000  0.06790000  1
  H  H24  1  0.21410000  0.40340000  0.89770000  1
  H  H25  1  0.21990000  0.94970000  0.43860000  1
  H  H26  1  0.24440000  0.60840000  0.30940000  1
  H  H27  1  0.25900000  0.04760000  0.77250000  1
  H  H28  1  0.29090000  0.14140000  0.58240000  1
  H  H29  1  0.29470000  0.29960000  0.98940000  1
  H  H30  1  0.29520000  0.28770000  0.13300000  1
  H  H31  1  0.30150000  0.09600000  0.87710000  1
  H  H32  1  0.30450000  0.53170000  0.24540000  1
  H  H33  1  0.31360000  0.06060000  0.62830000  1
  H  H34  1  0.33130000  0.53160000  0.07210000  1
  H  H35  1  0.34210000  0.60400000  0.01110000  1
  H  H36  1  0.35230000  0.81510000  0.02620000  1
  H  H37  1  0.35700000  0.82060000  0.87900000  1
  H  H38  1  0.36910000  0.42020000  0.77020000  1
  H  H39  1  0.38060000  0.89640000  0.23380000  1
  H  H40  1  0.38920000  0.84230000  0.57700000  1
  H  H41  1  0.39340000  0.84230000  0.43050000  1
  H  H42  1  0.45640000  0.38750000  0.60370000  1
  H  H43  1  0.47010000  0.38370000  0.45630000  1
  H  H44  1  0.47960000  0.95680000  0.76800000  1
  H  H45  1  0.48370000  0.43540000  0.23570000  1
  H  H46  1  0.51630000  0.56460000  0.76430000  1
  H  H47  1  0.52040000  0.04320000  0.23200000  1
  H  H48  1  0.52990000  0.61630000  0.54370000  1
  H  H49  1  0.54360000  0.61250000  0.39630000  1
  H  H50  1  0.60660000  0.15770000  0.56950000  1
  H  H51  1  0.61080000  0.15770000  0.42300000  1
  H  H52  1  0.61940000  0.10360000  0.76620000  1
  H  H53  1  0.63090000  0.57980000  0.22980000  1
  H  H54  1  0.64300000  0.17940000  0.12100000  1
  H  H55  1  0.64770000  0.18490000  0.97380000  1
  H  H56  1  0.65790000  0.39600000  0.98890000  1
  H  H57  1  0.66870000  0.46840000  0.92790000  1
  H  H58  1  0.68640000  0.93940000  0.37170000  1
  H  H59  1  0.69550000  0.46830000  0.75460000  1
  H  H60  1  0.69850000  0.90400000  0.12290000  1
  H  H61  1  0.70480000  0.71230000  0.86700000  1
  H  H62  1  0.70530000  0.70040000  0.01060000  1
  H  H63  1  0.70910000  0.85860000  0.41760000  1
  H  H64  1  0.74100000  0.95240000  0.22750000  1
  H  H65  1  0.75560000  0.39160000  0.69060000  1
  H  H66  1  0.78010000  0.05030000  0.56140000  1
  H  H67  1  0.78590000  0.59660000  0.10230000  1
  H  H68  1  0.79520000  0.41240000  0.93210000  1
  H  H69  1  0.80290000  0.84790000  0.68480000  1
  H  H70  1  0.81950000  0.89040000  0.34950000  1
  H  H71  1  0.82280000  0.42600000  0.79470000  1
  H  H72  1  0.83170000  0.38670000  0.36420000  1
  H  H73  1  0.83250000  0.88230000  0.18160000  1
  H  H74  1  0.83700000  0.12420000  0.50450000  1
  H  H75  1  0.85610000  0.24680000  0.91240000  1
  H  H76  1  0.86870000  0.66380000  0.44890000  1
  H  H77  1  0.88990000  0.14710000  0.88250000  1
  H  H78  1  0.89880000  0.54120000  0.13550000  1
  H  H79  1  0.91690000  0.77480000  0.49000000  1
  H  H80  1  0.94970000  0.06810000  0.53650000  1
  H  H81  1  0.95470000  0.61300000  0.07640000  1
  H  H82  1  0.95700000  0.28180000  0.50810000  1
  H  H83  1  0.95800000  0.99350000  0.68910000  1
  H  H84  1  0.97280000  0.76180000  0.06930000  1
  H  H85  1  0.99470000  0.52820000  0.35690000  1
  C  C86  1  0.01580000  0.26290000  0.63190000  1
  C  C87  1  0.04160000  0.76740000  0.20170000  1
  C  C88  1  0.04630000  0.32070000  0.79320000  1
  C  C89  1  0.04980000  0.27780000  0.54250000  1
  C  C90  1  0.06960000  0.78550000  0.11080000  1
  C  C91  1  0.07240000  0.82540000  0.36220000  1
  C  C92  1  0.07280000  0.33470000  0.70940000  1
  C  C93  1  0.09890000  0.83930000  0.27950000  1
  C  C94  1  0.10710000  0.39940000  0.87720000  1
  C  C95  1  0.11080000  0.48840000  0.66760000  1
  C  C96  1  0.13170000  0.90250000  0.44750000  1
  C  C97  1  0.14220000  0.01200000  0.29620000  1
  C  C98  1  0.16960000  0.42790000  0.70590000  1
  C  C99  1  0.19290000  0.93280000  0.27510000  1
  C  C100  1  0.20910000  0.57440000  0.66560000  1
  C  C101  1  0.23400000  0.09900000  0.29640000  1
  C  C102  1  0.26760000  0.10460000  0.81870000  1
  C  C103  1  0.26900000  0.58800000  0.24960000  1
  C  C104  1  0.28530000  0.11960000  0.63690000  1
  C  C105  1  0.31350000  0.59120000  0.06710000  1
  C  C106  1  0.32360000  0.45890000  0.74260000  1
  C  C107  1  0.33860000  0.94770000  0.25030000  1
  C  C108  1  0.36910000  0.27500000  0.01510000  1
  C  C109  1  0.37060000  0.26870000  0.10100000  1
  C  C110  1  0.38300000  0.18600000  0.80060000  1
  C  C111  1  0.39410000  0.19190000  0.71280000  1
  C  C112  1  0.39430000  0.66540000  0.23210000  1
  C  C113  1  0.41040000  0.66960000  0.14500000  1
  C  C114  1  0.41090000  0.54560000  0.73920000  1
  C  C115  1  0.42170000  0.03590000  0.24930000  1
  C  C116  1  0.42180000  0.79470000  0.54000000  1
  C  C117  1  0.42420000  0.79150000  0.99440000  1
  C  C118  1  0.42620000  0.79590000  0.45280000  1
  C  C119  1  0.42790000  0.79470000  0.90620000  1
  C  C120  1  0.47390000  0.24630000  0.96450000  1
  C  C121  1  0.47840000  0.72980000  0.39640000  1
  C  C122  1  0.47990000  0.25450000  0.87130000  1
  C  C123  1  0.48690000  0.33830000  0.56760000  1
  C  C124  1  0.49410000  0.73400000  0.30330000  1
  C  C125  1  0.49610000  0.33570000  0.47920000  1
  C  C126  1  0.50390000  0.66430000  0.52080000  1
  C  C127  1  0.50590000  0.26600000  0.69670000  1
  C  C128  1  0.51310000  0.66170000  0.43240000  1
  C  C129  1  0.52010000  0.74550000  0.12870000  1
  C  C130  1  0.52160000  0.27020000  0.60360000  1
  C  C131  1  0.52610000  0.75370000  0.03550000  1
  C  C132  1  0.57210000  0.20530000  0.09380000  1
  C  C133  1  0.57380000  0.20410000  0.54720000  1
  C  C134  1  0.57580000  0.20850000  0.00560000  1
  C  C135  1  0.57820000  0.20530000  0.46000000  1
  C  C136  1  0.57830000  0.96410000  0.75070000  1
  C  C137  1  0.58910000  0.45440000  0.26080000  1
  C  C138  1  0.58960000  0.33040000  0.85500000  1
  C  C139  1  0.60570000  0.33460000  0.76790000  1
  C  C140  1  0.60590000  0.80810000  0.28720000  1
  C  C141  1  0.61700000  0.81400000  0.19940000  1
  C  C142  1  0.62940000  0.73130000  0.89900000  1
  C  C143  1  0.63090000  0.72500000  0.98490000  1
  C  C144  1  0.66140000  0.05230000  0.74970000  1
  C  C145  1  0.67640000  0.54110000  0.25740000  1
  C  C146  1  0.68650000  0.40880000  0.93290000  1
  C  C147  1  0.71470000  0.88040000  0.36310000  1
  C  C148  1  0.73100000  0.41200000  0.75040000  1
  C  C149  1  0.73240000  0.89540000  0.18130000  1
  C  C150  1  0.76600000  0.90100000  0.70360000  1
  C  C151  1  0.79090000  0.42560000  0.33440000  1
  C  C152  1  0.80710000  0.06720000  0.72490000  1
  C  C153  1  0.83040000  0.57210000  0.29410000  1
  C  C154  1  0.85780000  0.98800000  0.70380000  1
  C  C155  1  0.86830000  0.09750000  0.55250000  1
  C  C156  1  0.88920000  0.51160000  0.33240000  1
  C  C157  1  0.89290000  0.60060000  0.12280000  1
  C  C158  1  0.90110000  0.16070000  0.72050000  1
  C  C159  1  0.92720000  0.66530000  0.29060000  1
  C  C160  1  0.92760000  0.17460000  0.63780000  1
  C  C161  1  0.93040000  0.21450000  0.88920000  1
  C  C162  1  0.95020000  0.72220000  0.45750000  1
  C  C163  1  0.95370000  0.67930000  0.20680000  1
  C  C164  1  0.95840000  0.23260000  0.79830000  1
  C  C165  1  0.98420000  0.73710000  0.36810000  1
  N  N166  1  0.35500000  0.60480000  0.70240000  1
  N  N167  1  0.37170000  0.11180000  0.27130000  1
  N  N168  1  0.46070000  0.73030000  0.57590000  1
  N  N169  1  0.47410000  0.23680000  0.14190000  1
  N  N170  1  0.52590000  0.76320000  0.85810000  1
  N  N171  1  0.53930000  0.26970000  0.42410000  1
  N  N172  1  0.62830000  0.88820000  0.72870000  1
  N  N173  1  0.64500000  0.39520000  0.29760000  1
  O  O174  1  0.01990000  0.27070000  0.33670000  1
  O  O175  1  0.29310000  0.78640000  0.72180000  1
  O  O176  1  0.31460000  0.29910000  0.29150000  1
  O  O177  1  0.68540000  0.70090000  0.70850000  1
  O  O178  1  0.70690000  0.21360000  0.27820000  1
  O  O179  1  0.98010000  0.72930000  0.66330000  1
