# generated using pymatgen
data_ZnH13C16N4O3
_symmetry_space_group_name_H-M   'P 1'
_cell_length_a   18.03500000
_cell_length_b   18.03500000
_cell_length_c   31.23932692
_cell_angle_alpha   101.86627702
_cell_angle_beta   101.86627702
_cell_angle_gamma   106.71700000
_symmetry_Int_Tables_number   1
_chemical_formula_structural   ZnH13C16N4O3
_chemical_formula_sum   'Zn16 H208 C256 N64 O48'
_cell_volume   9135.63968349
_cell_formula_units_Z   16
loop_
 _symmetry_equiv_pos_site_id
 _symmetry_equiv_pos_as_xyz
  1  'x, y, z'
loop_
 _atom_site_type_symbol
 _atom_site_label
 _atom_site_symmetry_multiplicity
 _atom_site_fract_x
 _atom_site_fract_y
 _atom_site_fract_z
 _atom_site_occupancy
  Zn  Zn0  1  0.14234000  0.39782000  0.99636000  1
  Zn  Zn1  1  0.64124000  0.89573000  0.48514000  1
  Zn  Zn2  1  0.51692000  0.28722000  0.27198000  1
  Zn  Zn3  1  0.03722000  0.76692000  0.77198000  1
  Zn  Zn4  1  0.01524000  0.24494000  0.72802000  1
  Zn  Zn5  1  0.52208000  0.75475000  0.21843000  1
  Zn  Zn6  1  0.89598000  0.65146000  0.50364000  1
  Zn  Zn7  1  0.40146000  0.14598000  0.00364000  1
  Zn  Zn8  1  0.14782000  0.39234000  0.49636000  1
  Zn  Zn9  1  0.64574000  0.89125000  0.98515000  1
  Zn  Zn10  1  0.53632000  0.30365000  0.78157000  1
  Zn  Zn11  1  0.99494000  0.26524000  0.22802000  1
  Zn  Zn12  1  0.05365000  0.78632000  0.28157000  1
  Zn  Zn13  1  0.50475000  0.77208000  0.71843000  1
  Zn  Zn14  1  0.90610000  0.66060000  0.01486000  1
  Zn  Zn15  1  0.41059000  0.15609000  0.51485000  1
  H  H16  1  0.71090000  0.22070000  0.69940000  1
  H  H17  1  0.48130000  0.03670000  0.46840000  1
  H  H18  1  0.96250000  0.73730000  0.94840000  1
  H  H19  1  0.17830000  0.86870000  0.16400000  1
  H  H20  1  0.99800000  0.56120000  0.98340000  1
  H  H21  1  0.15180000  0.10540000  0.13000000  1
  H  H22  1  0.44210000  0.91390000  0.41840000  1
  H  H23  1  0.84390000  0.33450000  0.81240000  1
  H  H24  1  0.58300000  0.80780000  0.54960000  1
  H  H25  1  0.56830000  0.01290000  0.53160000  1
  H  H26  1  0.24160000  0.69360000  0.20380000  1
  H  H27  1  0.48730000  0.21250000  0.44840000  1
  H  H28  1  0.34670000  0.85590000  0.30340000  1
  H  H29  1  0.41280000  0.36340000  0.36480000  1
  H  H30  1  0.24890000  0.30050000  0.20000000  1
  H  H31  1  0.09920000  0.53840000  0.04380000  1
  H  H32  1  0.15550000  0.65830000  0.09740000  1
  H  H33  1  0.97480000  0.85320000  0.89600000  1
  H  H34  1  0.43120000  0.69760000  0.35000000  1
  H  H35  1  0.47720000  0.28180000  0.39460000  1
  H  H36  1  0.92640000  0.11580000  0.84300000  1
  H  H37  1  0.63210000  0.66670000  0.53860000  1
  H  H38  1  0.78150000  0.77210000  0.68760000  1
  H  H39  1  0.96270000  0.35550000  0.86700000  1
  H  H40  1  0.97540000  0.02180000  0.87000000  1
  H  H41  1  0.56000000  0.61820000  0.44480000  1
  H  H42  1  0.27280000  0.08340000  0.15700000  1
  H  H43  1  0.51670000  0.49190000  0.39900000  1
  H  H44  1  0.37850000  0.34530000  0.25120000  1
  H  H45  1  0.21430000  0.21650000  0.08380000  1
  H  H46  1  0.06910000  0.53890000  0.93500000  1
  H  H47  1  0.26900000  0.81980000  0.13240000  1
  H  H48  1  0.03180000  0.72720000  0.89460000  1
  H  H49  1  0.93900000  0.19920000  0.79560000  1
  H  H50  1  0.41850000  0.84950000  0.25180000  1
  H  H51  1  0.71710000  0.19370000  0.55020000  1
  H  H52  1  0.83340000  0.52280000  0.65700000  1
  H  H53  1  0.21670000  0.28550000  0.03160000  1
  H  H54  1  0.89340000  0.65360000  0.70440000  1
  H  H55  1  0.64350000  0.16690000  0.44980000  1
  H  H56  1  0.55280000  0.94940000  0.35860000  1
  H  H57  1  0.35560000  0.74520000  0.15880000  1
  H  H58  1  0.01040000  0.50880000  0.81120000  1
  H  H59  1  0.40360000  0.14340000  0.20440000  1
  H  H60  1  0.49130000  0.68350000  0.28840000  1
  H  H61  1  0.96330000  0.38990000  0.75760000  1
  H  H62  1  0.60320000  0.22480000  0.39600000  1
  H  H63  1  0.05610000  0.93730000  0.84460000  1
  H  H64  1  0.76410000  0.03890000  0.55160000  1
  H  H65  1  0.84570000  0.73850000  0.63300000  1
  H  H66  1  0.95570000  0.88230000  0.74240000  1
  H  H67  1  0.13270000  0.13050000  0.91620000  1
  H  H68  1  0.52130000  0.01150000  0.30060000  1
  H  H69  1  0.82880000  0.20720000  0.60400000  1
  H  H70  1  0.85540000  0.40180000  0.63000000  1
  H  H71  1  0.30600000  0.50680000  0.05840000  1
  H  H72  1  0.76460000  0.82780000  0.51660000  1
  H  H73  1  0.11340000  0.66280000  0.86480000  1
  H  H74  1  0.94920000  0.94760000  0.68880000  1
  H  H75  1  0.37050000  0.62910000  0.11000000  1
  H  H76  1  0.88720000  0.08260000  0.60540000  1
  H  H77  1  0.17200000  0.92280000  0.88780000  1
  H  H78  1  0.67280000  0.42200000  0.38780000  1
  H  H79  1  0.25390000  0.18510000  0.96840000  1
  H  H80  1  0.73020000  0.54320000  0.43980000  1
  H  H81  1  0.18460000  0.57380000  0.89200000  1
  H  H82  1  0.64680000  0.69860000  0.34940000  1
  H  H83  1  0.10050000  0.04890000  0.80000000  1
  H  H84  1  0.60910000  0.56430000  0.30640000  1
  H  H85  1  0.96150000  0.34270000  0.65540000  1
  H  H86  1  0.88410000  0.85390000  0.56500000  1
  H  H87  1  0.52210000  0.03150000  0.18760000  1
  H  H88  1  0.20130000  0.45890000  0.86060000  1
  H  H89  1  0.68730000  0.30610000  0.34460000  1
  H  H90  1  0.24190000  0.76670000  0.89900000  1
  H  H91  1  0.09530000  0.62850000  0.75120000  1
  H  H92  1  0.09410000  0.12730000  0.74880000  1
  H  H93  1  0.44140000  0.82240000  0.09540000  1
  H  H94  1  0.54120000  0.35220000  0.19420000  1
  H  H95  1  0.80540000  0.74460000  0.45620000  1
  H  H96  1  0.05050000  0.49890000  0.70000000  1
  H  H97  1  0.15800000  0.34700000  0.80580000  1
  H  H98  1  0.29320000  0.98020000  0.93980000  1
  H  H99  1  0.64120000  0.90840000  0.28580000  1
  H  H100  1  0.48850000  0.09570000  0.13300000  1
  H  H101  1  0.99860000  0.04800000  0.63520000  1
  H  H102  1  0.41670000  0.88210000  0.03860000  1
  H  H103  1  0.96650000  0.46430000  0.58380000  1
  H  H104  1  0.63230000  0.20570000  0.24240000  1
  H  H105  1  0.77180000  0.22540000  0.37000000  1
  H  H106  1  0.80810000  0.81090000  0.40260000  1
  H  H107  1  0.10220000  0.79120000  0.69420000  1
  H  H108  1  0.66450000  0.69570000  0.24700000  1
  H  H109  1  0.03420000  0.28500000  0.61220000  1
  H  H110  1  0.36820000  0.81000000  0.94480000  1
  H  H111  1  0.76430000  0.95470000  0.33600000  1
  H  H112  1  0.04260000  0.93180000  0.60800000  1
  H  H113  1  0.09070000  0.84830000  0.63940000  1
  H  H114  1  0.59830000  0.34070000  0.13940000  1
  H  H115  1  0.56790000  0.76390000  0.10400000  1
  H  H116  1  0.88050000  0.38270000  0.41620000  1
  H  H117  1  0.93510000  0.50390000  0.46840000  1
  H  H118  1  0.63990000  0.70750000  0.14960000  1
  H  H119  1  0.78780000  0.73980000  0.29620000  1
  H  H120  1  0.09290000  0.11770000  0.60100000  1
  H  H121  1  0.79890000  0.35050000  0.30000000  1
  H  H122  1  0.03550000  0.46670000  0.53160000  1
  H  H123  1  0.44840000  0.24760000  0.94160000  1
  H  H124  1  0.31430000  0.85910000  0.80640000  1
  H  H125  1  0.55780000  0.83300000  0.04960000  1
  H  H126  1  0.69760000  0.19920000  0.18880000  1
  H  H127  1  0.88660000  0.93740000  0.36760000  1
  H  H128  1  0.86580000  0.17640000  0.34300000  1
  H  H129  1  0.49460000  0.05540000  0.95620000  1
  H  H130  1  0.60390000  0.13410000  0.06500000  1
  H  H131  1  0.10340000  0.29040000  0.56020000  1
  H  H132  1  0.99760000  0.69840000  0.44160000  1
  H  H133  1  0.57780000  0.01460000  0.01660000  1
  H  H134  1  0.25790000  0.30270000  0.69360000  1
  H  H135  1  0.68180000  0.29260000  0.10800000  1
  H  H136  1  0.79330000  0.80250000  0.19660000  1
  H  H137  1  0.71290000  0.61590000  0.11560000  1
  H  H138  1  0.44760000  0.68120000  0.85000000  1
  H  H139  1  0.44860000  0.89680000  0.84940000  1
  H  H140  1  0.94680000  0.83640000  0.34120000  1
  H  H141  1  0.50030000  0.59730000  0.88440000  1
  H  H142  1  0.17340000  0.11520000  0.55520000  1
  H  H143  1  0.01050000  0.76910000  0.39000000  1
  H  H144  1  0.87730000  0.34410000  0.24880000  1
  H  H145  1  0.51910000  0.26050000  0.89000000  1
  H  H146  1  0.43350000  0.74130000  0.78840000  1
  H  H147  1  0.94920000  0.18900000  0.29560000  1
  H  H148  1  0.56090000  0.05810000  0.90260000  1
  H  H149  1  0.79800000  0.24860000  0.13520000  1
  H  H150  1  0.12806667  0.09350000  0.46140000  1
  H  H151  1  0.91670000  0.84770000  0.24820000  1
  H  H152  1  0.83120000  0.59760000  0.15000000  1
  H  H153  1  0.39510000  0.20290000  0.71160000  1
  H  H154  1  0.09600000  0.97700000  0.40460000  1
  H  H155  1  0.77370000  0.74550000  0.08160000  1
  H  H156  1  0.48980000  0.03780000  0.79620000  1
  H  H157  1  0.44870000  0.41750000  0.75300000  1
  H  H158  1  0.34760000  0.08120000  0.65000000  1
  H  H159  1  0.25680000  0.55600000  0.55840000  1
  H  H160  1  0.34920000  0.29740000  0.65060000  1
  H  H161  1  0.44570000  0.91450000  0.74700000  1
  H  H162  1  0.55790000  0.49030000  0.85040000  1
  H  H163  1  0.83260000  0.13720000  0.10540000  1
  H  H164  1  0.76290000  0.81830000  0.03160000  1
  H  H165  1  0.78890000  0.01410000  0.05160000  1
  H  H166  1  0.10550000  0.21270000  0.36700000  1
  H  H167  1  0.44360000  0.49160000  0.70380000  1
  H  H168  1  0.95290000  0.64510000  0.21160000  1
  H  H169  1  0.28840000  0.34920000  0.54380000  1
  H  H170  1  0.58640000  0.19680000  0.84120000  1
  H  H171  1  0.66390000  0.69210000  0.91840000  1
  H  H172  1  0.36590000  0.96290000  0.61560000  1
  H  H173  1  0.65990000  0.46390000  0.89600000  1
  H  H174  1  0.86770000  0.34290000  0.10100000  1
  H  H175  1  0.37910000  0.62050000  0.61000000  1
  H  H176  1  0.97070000  0.96090000  0.19940000  1
  H  H177  1  0.08450000  0.09390000  0.31240000  1
  H  H178  1  0.09700000  0.40800000  0.30580000  1
  H  H179  1  0.60590000  0.59670000  0.80340000  1
  H  H180  1  0.94420000  0.84080000  0.14140000  1
  H  H181  1  0.25820000  0.03340000  0.45040000  1
  H  H182  1  0.45750000  0.88990000  0.64960000  1
  H  H183  1  0.86520000  0.42340000  0.05520000  1
  H  H184  1  0.40830000  0.40550000  0.59740000  1
  H  H185  1  0.21390000  0.90990000  0.39600000  1
  H  H186  1  0.78670000  0.73130000  0.96840000  1
  H  H187  1  0.68740000  0.13660000  0.86760000  1
  H  H188  1  0.72700000  0.34600000  0.90460000  1
  H  H189  1  0.31120000  0.24800000  0.48340000  1
  H  H190  1  0.78340000  0.50820000  0.95040000  1
  H  H191  1  0.49520000  0.60560000  0.65880000  1
  H  H192  1  0.69940000  0.80280000  0.85860000  1
  H  H193  1  0.59950000  0.66850000  0.75180000  1
  H  H194  1  0.20890000  0.45130000  0.36060000  1
  H  H195  1  0.59770000  0.16670000  0.74820000  1
  H  H196  1  0.95720000  0.07880000  0.10400000  1
  H  H197  1  0.28890000  0.31910000  0.43500000  1
  H  H198  1  0.55250000  0.04330000  0.69660000  1
  H  H199  1  0.05270000  0.50790000  0.19360000  1
  H  H200  1  0.70470000  0.01430000  0.83600000  1
  H  H201  1  0.65840000  0.89120000  0.78580000  1
  H  H202  1  0.84350000  0.37810000  0.96140000  1
  H  H203  1  0.13990000  0.21330000  0.25760000  1
  H  H204  1  0.24030000  0.80790000  0.35040000  1
  H  H205  1  0.10540000  0.87260000  0.21420000  1
  H  H206  1  0.94370000  0.96710000  0.05020000  1
  H  H207  1  0.04740000  0.59920000  0.15060000  1
  H  H208  1  0.62260000  0.35540000  0.71420000  1
  H  H209  1  0.51390000  0.81790000  0.60400000  1
  H  H210  1  0.49550000  0.02370000  0.58160000  1
  H  H211  1  0.16750000  0.69870000  0.25300000  1
  H  H212  1  0.03500000  0.28420000  0.11220000  1
  H  H213  1  0.32380000  0.43460000  0.39200000  1
  H  H214  1  0.09270000  0.21150000  0.15540000  1
  H  H215  1  0.56980000  0.51900000  0.63240000  1
  H  H216  1  0.25880000  0.26040000  0.31120000  1
  H  H217  1  0.59080000  0.19420000  0.64140000  1
  H  H218  1  0.61870000  0.42830000  0.66400000  1
  H  H219  1  0.76150000  0.77130000  0.80060000  1
  H  H220  1  0.34730000  0.75030000  0.38440000  1
  H  H221  1  0.91690000  0.89350000  0.94980000  1
  H  H222  1  0.57240000  0.69140000  0.59540000  1
  H  H223  1  0.04040000  0.35340000  0.06020000  1
  C  C224  1  0.84328000  0.34110000  0.84258000  1
  C  C225  1  0.44699000  0.23513000  0.44552000  1
  C  C226  1  0.63942000  0.19974000  0.63436000  1
  C  C227  1  0.56413000  0.18163000  0.55536000  1
  C  C228  1  0.56517000  0.85125000  0.55582000  1
  C  C229  1  0.21530000  0.73108000  0.20564000  1
  C  C230  1  0.55515000  0.97177000  0.54532000  1
  C  C231  1  0.07635000  0.32603000  0.06518000  1
  C  C232  1  0.12675000  0.24439000  0.10574000  1
  C  C233  1  0.66928000  0.73388000  0.64742000  1
  C  C234  1  0.62792000  0.70264000  0.60334000  1
  C  C235  1  0.44232000  0.27654000  0.41286000  1
  C  C236  1  0.98798000  0.38766000  0.95734000  1
  C  C237  1  0.87432000  0.80980000  0.84334000  1
  C  C238  1  0.91989000  0.84507000  0.88796000  1
  C  C239  1  0.98513000  0.69699000  0.94552000  1
  C  C240  1  0.91611000  0.35543000  0.87554000  1
  C  C241  1  0.00622000  0.59612000  0.96534000  1
  C  C242  1  0.71103000  0.21361000  0.66904000  1
  C  C243  1  0.22323000  0.78285000  0.17804000  1
  C  C244  1  0.38097000  0.77831000  0.33208000  1
  C  C245  1  0.64308000  0.19450000  0.59038000  1
  C  C246  1  0.24685000  0.18487000  0.17252000  1
  C  C247  1  0.37720000  0.82226000  0.30246000  1
  C  C248  1  0.27887000  0.26643000  0.20130000  1
  C  C249  1  0.75070000  0.74852000  0.65742000  1
  C  C250  1  0.66349000  0.68615000  0.56882000  1
  C  C251  1  0.15433000  0.55683000  0.05756000  1
  C  C252  1  0.42601000  0.72699000  0.32900000  1
  C  C253  1  0.18744000  0.62856000  0.08952000  1
  C  C254  1  0.17895000  0.24487000  0.07982000  1
  C  C255  1  0.91124000  0.78492000  0.80556000  1
  C  C256  1  0.04867000  0.58093000  0.93660000  1
  C  C257  1  0.02654000  0.69232000  0.91286000  1
  C  C258  1  0.29191000  0.13709000  0.17440000  1
  C  C259  1  0.78098000  0.21646000  0.65666000  1
  C  C260  1  0.35708000  0.29322000  0.23150000  1
  C  C261  1  0.17998000  0.28644000  0.04842000  1
  C  C262  1  0.71513000  0.19789000  0.58002000  1
  C  C263  1  0.96269000  0.11751000  0.82560000  1
  C  C264  1  0.41921000  0.81643000  0.27104000  1
  C  C265  1  0.05986000  0.63162000  0.90968000  1
  C  C266  1  0.56824000  0.60954000  0.41598000  1
  C  C267  1  0.54464000  0.53424000  0.38928000  1
  C  C268  1  0.26986000  0.65760000  0.11052000  1
  C  C269  1  0.85568000  0.22936000  0.69444000  1
  C  C270  1  0.37048000  0.17460000  0.20488000  1
  C  C271  1  0.79057000  0.72989000  0.62446000  1
  C  C272  1  0.74512000  0.69834000  0.57884000  1
  C  C273  1  0.78193000  0.20711000  0.61204000  1
  C  C274  1  0.46472000  0.72042000  0.29254000  1
  C  C275  1  0.96972000  0.16560000  0.79512000  1
  C  C276  1  0.62627000  0.00877000  0.44464000  1
  C  C277  1  0.01235000  0.07433000  0.82748000  1
  C  C278  1  0.60412000  0.05270000  0.40962000  1
  C  C279  1  0.62720000  0.76122000  0.43222000  1
  C  C280  1  0.61787000  0.13511000  0.41998000  1
  C  C281  1  0.56538000  0.00506000  0.36564000  1
  C  C282  1  0.60407000  0.67395000  0.40234000  1
  C  C283  1  0.59507000  0.16989000  0.38796000  1
  C  C284  1  0.27556000  0.53872000  0.06568000  1
  C  C285  1  0.88709000  0.54191000  0.67440000  1
  C  C286  1  0.56038000  0.51736000  0.34754000  1
  C  C287  1  0.54457000  0.04199000  0.33096000  1
  C  C288  1  0.55980000  0.12432000  0.34334000  1
  C  C289  1  0.31482000  0.61114000  0.09736000  1
  C  C290  1  0.92460000  0.62048000  0.70488000  1
  C  C291  1  0.54091000  0.43271000  0.32022000  1
  C  C292  1  0.53492000  0.16124000  0.30556000  1
  C  C293  1  0.04124000  0.47538000  0.81082000  1
  C  C294  1  0.01319000  0.40375000  0.77854000  1
  C  C295  1  0.78961000  0.00147000  0.55448000  1
  C  C296  1  0.78064000  0.68032000  0.54266000  1
  C  C297  1  0.13865000  0.02101000  0.89426000  1
  C  C298  1  0.16505000  0.09913000  0.92018000  1
  C  C299  1  0.79088000  0.88078000  0.53466000  1
  C  C300  1  0.62063000  0.65691000  0.36014000  1
  C  C301  1  0.93487000  0.49685000  0.67252000  1
  C  C302  1  0.59718000  0.57550000  0.33408000  1
  C  C303  1  0.98465000  0.87521000  0.72146000  1
  C  C304  1  0.06513000  0.07757000  0.79870000  1
  C  C305  1  0.11066000  0.49850000  0.84136000  1
  C  C306  1  0.86368000  0.02946000  0.58714000  1
  C  C307  1  0.18884000  0.97714000  0.90358000  1
  C  C308  1  0.23802000  0.13156000  0.95158000  1
  C  C309  1  0.98042000  0.91456000  0.68918000  1
  C  C310  1  0.06172000  0.12558000  0.76850000  1
  C  C311  1  0.86207000  0.89433000  0.56340000  1
  C  C312  1  0.90018000  0.97194000  0.59032000  1
  C  C313  1  0.04322000  0.60708000  0.73150000  1
  C  C314  1  0.15234000  0.44578000  0.83872000  1
  C  C315  1  0.01643000  0.52887000  0.70130000  1
  C  C316  1  0.12602000  0.37926000  0.80728000  1
  C  C317  1  0.72714000  0.43884000  0.40358000  1
  C  C318  1  0.50838000  0.88176000  0.18300000  1
  C  C319  1  0.26085000  0.01117000  0.93482000  1
  C  C320  1  0.76117000  0.51085000  0.43482000  1
  C  C321  1  0.48388000  0.91928000  0.14742000  1
  C  C322  1  0.49852000  0.00070000  0.15742000  1
  C  C323  1  0.45264000  0.87792000  0.10334000  1
  C  C324  1  0.47989000  0.04057000  0.12446000  1
  C  C325  1  0.01930000  0.90714000  0.65864000  1
  C  C326  1  0.18271000  0.79091000  0.82022000  1
  C  C327  1  0.43615000  0.91349000  0.06882000  1
  C  C328  1  0.44834000  0.99512000  0.07884000  1
  C  C329  1  0.06874000  0.82198000  0.69272000  1
  C  C330  1  0.77101000  0.38865000  0.39426000  1
  C  C331  1  0.57198000  0.31874000  0.19272000  1
  C  C332  1  0.67053000  0.87369000  0.28742000  1
  C  C333  1  0.43032000  0.03064000  0.04266000  1
  C  C334  1  0.99439000  0.37675000  0.60574000  1
  C  C335  1  0.28424000  0.79464000  0.88928000  1
  C  C336  1  0.06362000  0.85706000  0.66128000  1
  C  C337  1  0.62521000  0.23465000  0.22146000  1
  C  C338  1  0.84677000  0.74927000  0.44244000  1
  C  C339  1  0.99487000  0.42895000  0.57982000  1
  C  C340  1  0.68461000  0.74923000  0.26484000  1
  C  C341  1  0.26736000  0.81038000  0.84754000  1
  C  C342  1  0.74520000  0.90192000  0.31752000  1
  C  C343  1  0.84913000  0.41505000  0.42018000  1
  C  C344  1  0.88156000  0.48802000  0.45158000  1
  C  C345  1  0.11249000  0.22069000  0.67978000  1
  C  C346  1  0.84792000  0.78904000  0.41048000  1
  C  C347  1  0.03526000  0.32356000  0.59642000  1
  C  C348  1  0.35954000  0.81824000  0.91598000  1
  C  C349  1  0.60706000  0.31362000  0.16128000  1
  C  C350  1  0.75966000  0.77544000  0.29436000  1
  C  C351  1  0.79519000  0.85481000  0.32196000  1
  C  C352  1  0.66456000  0.23042000  0.18918000  1
  C  C353  1  0.03644000  0.42998000  0.54842000  1
  C  C354  1  0.32550000  0.84718000  0.83408000  1
  C  C355  1  0.82433000  0.26235000  0.32748000  1
  C  C356  1  0.65714000  0.26930000  0.15864000  1
  C  C357  1  0.07603000  0.32635000  0.56518000  1
  C  C358  1  0.16982000  0.21284000  0.65246000  1
  C  C359  1  0.60711000  0.77311000  0.08862000  1
  C  C360  1  0.90934000  0.79708000  0.38948000  1
  C  C361  1  0.42395000  0.85407000  0.90234000  1
  C  C362  1  0.95988000  0.72304000  0.43432000  1
  C  C363  1  0.82757000  0.31513000  0.29870000  1
  C  C364  1  0.14496000  0.15536000  0.61072000  1
  C  C365  1  0.47304000  0.20988000  0.93432000  1
  C  C366  1  0.86751000  0.21269000  0.32560000  1
  C  C367  1  0.60125000  0.81517000  0.05582000  1
  C  C368  1  0.40691000  0.87063000  0.86014000  1
  C  C369  1  0.49927000  0.09677000  0.94244000  1
  C  C370  1  0.96746000  0.76378000  0.40264000  1
  C  C371  1  0.66971000  0.74531000  0.09822000  1
  C  C372  1  0.24142000  0.26310000  0.66592000  1
  C  C373  1  0.51122000  0.87720000  0.93222000  1
  C  C374  1  0.64433000  0.11207000  0.06340000  1
  C  C375  1  0.63078000  0.04088000  0.03466000  1
  C  C376  1  0.87558000  0.31172000  0.26850000  1
  C  C377  1  0.19356000  0.15226000  0.58402000  1
  C  C378  1  0.51378000  0.21746000  0.90264000  1
  C  C379  1  0.91560000  0.21972000  0.29512000  1
  C  C380  1  0.82474000  0.76980000  0.19754000  1
  C  C381  1  0.53904000  0.09792000  0.91048000  1
  C  C382  1  0.79889000  0.69623000  0.16792000  1
  C  C383  1  0.72194000  0.15018000  0.09032000  1
  C  C384  1  0.47699000  0.67601000  0.82900000  1
  C  C385  1  0.72975000  0.76279000  0.07574000  1
  C  C386  1  0.29677000  0.26049000  0.63986000  1
  C  C387  1  0.54708000  0.15934000  0.88948000  1
  C  C388  1  0.89817000  0.79539000  0.22896000  1
  C  C389  1  0.27161000  0.20173000  0.59766000  1
  C  C390  1  0.84701000  0.64799000  0.17100000  1
  C  C391  1  0.72177000  0.80515000  0.04532000  1
  C  C392  1  0.47042000  0.71472000  0.79254000  1
  C  C393  1  0.13766000  0.23798000  0.45734000  1
  C  C394  1  0.11733000  0.09467000  0.43118000  1
  C  C395  1  0.77946000  0.11368000  0.08714000  1
  C  C396  1  0.52831000  0.63097000  0.83208000  1
  C  C397  1  0.75147000  0.03961000  0.05448000  1
  C  C398  1  0.11950000  0.16628000  0.42116000  1
  C  C399  1  0.09930000  0.02458000  0.39666000  1
  C  C400  1  0.92218000  0.67788000  0.20746000  1
  C  C401  1  0.42788000  0.17218000  0.70746000  1
  C  C402  1  0.28872000  0.52556000  0.56568000  1
  C  C403  1  0.39799000  0.09701000  0.67100000  1
  C  C404  1  0.10543000  0.16611000  0.37554000  1
  C  C405  1  0.52544000  0.00966000  0.79436000  1
  C  C406  1  0.08646000  0.02186000  0.35258000  1
  C  C407  1  0.49923000  0.93461000  0.76484000  1
  C  C408  1  0.64709000  0.57149000  0.90178000  1
  C  C409  1  0.09110000  0.09328000  0.34258000  1
  C  C410  1  0.48439000  0.41977000  0.73516000  1
  C  C411  1  0.30683000  0.40433000  0.55756000  1
  C  C412  1  0.07538000  0.94876000  0.31700000  1
  C  C413  1  0.32900000  0.19498000  0.56778000  1
  C  C414  1  0.68705000  0.65401000  0.92426000  1
  C  C415  1  0.36114000  0.56482000  0.59736000  1
  C  C416  1  0.57226000  0.62720000  0.80246000  1
  C  C417  1  0.68449000  0.51849000  0.91138000  1
  C  C418  1  0.48108000  0.46530000  0.70564000  1
  C  C419  1  0.44623000  0.04889000  0.66792000  1
  C  C420  1  0.60481000  0.04519000  0.82196000  1
  C  C421  1  0.97936000  0.10568000  0.19444000  1
  C  C422  1  0.37856000  0.43744000  0.58952000  1
  C  C423  1  0.97069000  0.36249000  0.17978000  1
  C  C424  1  0.96361000  0.96103000  0.16904000  1
  C  C425  1  0.90536000  0.39496000  0.11072000  1
  C  C426  1  0.56643000  0.66921000  0.77104000  1
  C  C427  1  0.40760000  0.51986000  0.61052000  1
  C  C428  1  0.75983000  0.67645000  0.95468000  1
  C  C429  1  0.96646000  0.03098000  0.15666000  1
  C  C430  1  0.96284000  0.41982000  0.15246000  1
  C  C431  1  0.75877000  0.87627000  0.94464000  1
  C  C432  1  0.75935000  0.54543000  0.94418000  1
  C  C433  1  0.94974000  0.88942000  0.13436000  1
  C  C434  1  0.54539000  0.14817000  0.72896000  1
  C  C435  1  0.90226000  0.44356000  0.08402000  1
  C  C436  1  0.12926000  0.37602000  0.30728000  1
  C  C437  1  0.51980000  0.07474000  0.69754000  1
  C  C438  1  0.65192000  0.99520000  0.81752000  1
  C  C439  1  0.62369000  0.92053000  0.78742000  1
  C  C440  1  0.95711000  0.03193000  0.11204000  1
  C  C441  1  0.01310000  0.49142000  0.16592000  1
  C  C442  1  0.29543000  0.00935000  0.44418000  1
  C  C443  1  0.95173000  0.52161000  0.09766000  1
  C  C444  1  0.94450000  0.89308000  0.09038000  1
  C  C445  1  0.53285000  0.47323000  0.67804000  1
  C  C446  1  0.19578000  0.40234000  0.33872000  1
  C  C447  1  0.26849000  0.93449000  0.41138000  1
  C  C448  1  0.94789000  0.96513000  0.08002000  1
  C  C449  1  0.01049000  0.54677000  0.13986000  1
  C  C450  1  0.58627000  0.38311000  0.71258000  1
  C  C451  1  0.15375000  0.26319000  0.27854000  1
  C  C452  1  0.93163000  0.81413000  0.05536000  1
  C  C453  1  0.94498000  0.57900000  0.06778000  1
  C  C454  1  0.77458000  0.34930000  0.89666000  1
  C  C455  1  0.34612000  0.25622000  0.46534000  1
  C  C456  1  0.69876000  0.32538000  0.81700000  1
  C  C457  1  0.75506000  0.81538000  0.86564000  1
  C  C458  1  0.80270000  0.85412000  0.90962000  1
  C  C459  1  0.33093000  0.29867000  0.43660000  1
  C  C460  1  0.49531000  0.91971000  0.59822000  1
  C  C461  1  0.58440000  0.42768000  0.68248000  1
  C  C462  1  0.24850000  0.36066000  0.34136000  1
  C  C463  1  0.84467000  0.36733000  0.93118000  1
  C  C464  1  0.22538000  0.29124000  0.31082000  1
  C  C465  1  0.77186000  0.33646000  0.85258000  1
  C  C466  1  0.32149000  0.89709000  0.40178000  1
  C  C467  1  0.13311000  0.83627000  0.21258000  1
  C  C468  1  0.52311000  0.85711000  0.58862000  1
  C  C469  1  0.16977000  0.73439000  0.23516000  1
  C  C470  1  0.51279000  0.97975000  0.57574000  1
  C  C471  1  0.63176000  0.75838000  0.68300000  1
  C  C472  1  0.79199000  0.79457000  0.83096000  1
  C  C473  1  0.88511000  0.86787000  0.91998000  1
  C  C474  1  0.42645000  0.00983000  0.45468000  1
  C  C475  1  0.38162000  0.30986000  0.40968000  1
  C  C476  1  0.07356000  0.28526000  0.09642000  1
  C  C477  1  0.40401000  0.93705000  0.42426000  1
  C  C478  1  0.91628000  0.36950000  0.92116000  1
  C  C479  1  0.17768000  0.83440000  0.18248000  1
  N  N480  1  0.97434000  0.65204000  0.97204000  1
  N  N481  1  0.17192000  0.15576000  0.14468000  1
  N  N482  1  0.58030000  0.90758000  0.53318000  1
  N  N483  1  0.13179000  0.32837000  0.04008000  1
  N  N484  1  0.26659000  0.78535000  0.14794000  1
  N  N485  1  0.19718000  0.50980000  0.04432000  1
  N  N486  1  0.01108000  0.02724000  0.85532000  1
  N  N487  1  0.30678000  0.73212000  0.14230000  1
  N  N488  1  0.40167000  0.24343000  0.23216000  1
  N  N489  1  0.46170000  0.76652000  0.26574000  1
  N  N490  1  0.06767000  0.98531000  0.86164000  1
  N  N491  1  0.75230000  0.93000000  0.52796000  1
  N  N492  1  0.10537000  0.62741000  0.87958000  1
  N  N493  1  0.01127000  0.16951000  0.76784000  1
  N  N494  1  0.90576000  0.42192000  0.64468000  1
  N  N495  1  0.99343000  0.65167000  0.73216000  1
  N  N496  1  0.13942000  0.56530000  0.87272000  1
  N  N497  1  0.05131000  0.35303000  0.77498000  1
  N  N498  1  0.02633000  0.82805000  0.72502000  1
  N  N499  1  0.95603000  0.37367000  0.63836000  1
  N  N500  1  0.28829000  0.09171000  0.95992000  1
  N  N501  1  0.57805000  0.27633000  0.22502000  1
  N  N502  1  0.97579000  0.99783000  0.62042000  1
  N  N503  1  0.73531000  0.31767000  0.36164000  1
  N  N504  1  0.63556000  0.79438000  0.25874000  1
  N  N505  1  0.84171000  0.53829000  0.45992000  1
  N  N506  1  0.01670000  0.94258000  0.62728000  1
  N  N507  1  0.77724000  0.26108000  0.35532000  1
  N  N508  1  0.90286000  0.71548000  0.45568000  1
  N  N509  1  0.46548000  0.15286000  0.95568000  1
  N  N510  1  0.86865000  0.88741000  0.35206000  1
  N  N511  1  0.07837000  0.38179000  0.54008000  1
  N  N512  1  0.67033000  0.70607000  0.13180000  1
  N  N513  1  0.91448000  0.83982000  0.35770000  1
  N  N514  1  0.69258000  0.26670000  0.12728000  1
  N  N515  1  0.72535000  0.66259000  0.13454000  1
  N  N516  1  0.65758000  0.83030000  0.03318000  1
  N  N517  1  0.74783000  0.22579000  0.12042000  1
  N  N518  1  0.91951000  0.26127000  0.26784000  1
  N  N519  1  0.68000000  0.00230000  0.02796000  1
  N  N520  1  0.52805000  0.59081000  0.86546000  1
  N  N521  1  0.57427000  0.53853000  0.86820000  1
  N  N522  1  0.94596000  0.75078000  0.23426000  1
  N  N523  1  0.25980000  0.44718000  0.54432000  1
  N  N524  1  0.58982000  0.16448000  0.85770000  1
  N  N525  1  0.51652000  0.71170000  0.76574000  1
  N  N526  1  0.50078000  0.19596000  0.73426000  1
  N  N527  1  0.41259000  0.97535000  0.63454000  1
  N  N528  1  0.63741000  0.11865000  0.85206000  1
  N  N529  1  0.54438000  0.88556000  0.75874000  1
  N  N530  1  0.53564000  0.37682000  0.74126000  1
  N  N531  1  0.45607000  0.92033000  0.63180000  1
  N  N532  1  0.10303000  0.30131000  0.27498000  1
  N  N533  1  0.79712000  0.62440000  0.96682000  1
  N  N534  1  0.48212000  0.55678000  0.64230000  1
  N  N535  1  0.12682000  0.78564000  0.24126000  1
  N  N536  1  0.53535000  0.51659000  0.64794000  1
  N  N537  1  0.37440000  0.04712000  0.46682000  1
  N  N538  1  0.28853000  0.82427000  0.36820000  1
  N  N539  1  0.40204000  0.22434000  0.47204000  1
  N  N540  1  0.31530000  0.38942000  0.37272000  1
  N  N541  1  0.34081000  0.77805000  0.36546000  1
  N  N542  1  0.12367000  0.20603000  0.13836000  1
  N  N543  1  0.37741000  0.35537000  0.37958000  1
  O  O544  1  0.57248000  0.20016000  0.51924000  1
  O  O545  1  0.87157000  0.74495000  0.76782000  1
  O  O546  1  0.05223000  0.38943000  0.94566000  1
  O  O547  1  0.85375000  0.22713000  0.73218000  1
  O  O548  1  0.59274000  0.77374000  0.46180000  1
  O  O549  1  0.59664000  0.93712000  0.43776000  1
  O  O550  1  0.48826000  0.37496000  0.32922000  1
  O  O551  1  0.99221000  0.81257000  0.81840000  1
  O  O552  1  0.68092000  0.05324000  0.48076000  1
  O  O553  1  0.49495000  0.12157000  0.26782000  1
  O  O554  1  0.73855000  0.65543000  0.50240000  1
  O  O555  1  0.92381000  0.24417000  0.68160000  1
  O  O556  1  0.56257000  0.24221000  0.31840000  1
  O  O557  1  0.68421000  0.81515000  0.42546000  1
  O  O558  1  0.56154000  0.41304000  0.28778000  1
  O  O559  1  0.12496000  0.73826000  0.82922000  1
  O  O560  1  0.85657000  0.69377000  0.55434000  1
  O  O561  1  0.48140000  0.80444000  0.17210000  1
  O  O562  1  0.54905000  0.92341000  0.22178000  1
  O  O563  1  0.04574000  0.15904000  0.67078000  1
  O  O564  1  0.16304000  0.81154000  0.78778000  1
  O  O565  1  0.44377000  0.10657000  0.05434000  1
  O  O566  1  0.40543000  0.98855000  0.00240000  1
  O  O567  1  0.12526000  0.27376000  0.71222000  1
  O  O568  1  0.52374000  0.84274000  0.96180000  1
  O  O569  1  0.56515000  0.93421000  0.92546000  1
  O  O570  1  0.15303000  0.23615000  0.49760000  1
  O  O571  1  0.13943000  0.30223000  0.44566000  1
  O  O572  1  0.05930000  0.88234000  0.32790000  1
  O  O573  1  0.90904000  0.29574000  0.17078000  1
  O  O574  1  0.97713000  0.10375000  0.23218000  1
  O  O575  1  0.68712000  0.84664000  0.93776000  1
  O  O576  1  0.31194000  0.13094000  0.53820000  1
  O  O577  1  0.07727000  0.95163000  0.27822000  1
  O  O578  1  0.63234000  0.30930000  0.82790000  1
  O  O579  1  0.02376000  0.37526000  0.21222000  1
  O  O580  1  0.99417000  0.17381000  0.18160000  1
  O  O581  1  0.38969000  0.25875000  0.57454000  1
  O  O582  1  0.80324000  0.93092000  0.98076000  1
  O  O583  1  0.88094000  0.56194000  0.03820000  1
  O  O584  1  0.90888000  0.74936000  0.06224000  1
  O  O585  1  0.55444000  0.73140000  0.67210000  1
  O  O586  1  0.70163000  0.32727000  0.77822000  1
  O  O587  1  0.95016000  0.82248000  0.01924000  1
  O  O588  1  0.00875000  0.63969000  0.07454000  1
  O  O589  1  0.49936000  0.15888000  0.56224000  1
  O  O590  1  0.67341000  0.79905000  0.72178000  1
  O  O591  1  0.98615000  0.40303000  0.99760000  1
