# generated using pymatgen
data_CeH3W4C7NO15
_symmetry_space_group_name_H-M   'P 1'
_cell_length_a   20.48900000
_cell_length_b   23.47200000
_cell_length_c   29.66900000
_cell_angle_alpha   90.00000000
_cell_angle_beta   90.00000000
_cell_angle_gamma   90.00000000
_symmetry_Int_Tables_number   1
_chemical_formula_structural   CeH3W4C7NO15
_chemical_formula_sum   'Ce24 H72 W96 C168 N24 O360'
_cell_volume   14268.35044555
_cell_formula_units_Z   24
loop_
 _symmetry_equiv_pos_site_id
 _symmetry_equiv_pos_as_xyz
  1  'x, y, z'
loop_
 _atom_site_type_symbol
 _atom_site_label
 _atom_site_symmetry_multiplicity
 _atom_site_fract_x
 _atom_site_fract_y
 _atom_site_fract_z
 _atom_site_occupancy
  Ce  Ce0  1  0.00514000  0.26990000  0.14603000  1
  Ce  Ce1  1  0.00514000  0.76990000  0.35397000  1
  Ce  Ce2  1  0.09276000  0.47051000  0.68396000  1
  Ce  Ce3  1  0.09276000  0.97051000  0.81604000  1
  Ce  Ce4  1  0.12126000  0.19389000  0.94903000  1
  Ce  Ce5  1  0.12126000  0.69389000  0.55097000  1
  Ce  Ce6  1  0.37874000  0.19389000  0.44903000  1
  Ce  Ce7  1  0.37874000  0.69389000  0.05097000  1
  Ce  Ce8  1  0.40724000  0.47051000  0.18396000  1
  Ce  Ce9  1  0.40724000  0.97051000  0.31604000  1
  Ce  Ce10  1  0.49486000  0.26990000  0.64603000  1
  Ce  Ce11  1  0.49486000  0.76990000  0.85397000  1
  Ce  Ce12  1  0.50514000  0.23010000  0.14603000  1
  Ce  Ce13  1  0.50514000  0.73010000  0.35397000  1
  Ce  Ce14  1  0.59276000  0.02949000  0.68396000  1
  Ce  Ce15  1  0.59276000  0.52949000  0.81604000  1
  Ce  Ce16  1  0.62126000  0.30611000  0.94903000  1
  Ce  Ce17  1  0.62126000  0.80611000  0.55097000  1
  Ce  Ce18  1  0.87874000  0.30611000  0.44903000  1
  Ce  Ce19  1  0.87874000  0.80611000  0.05097000  1
  Ce  Ce20  1  0.90724000  0.02949000  0.18396000  1
  Ce  Ce21  1  0.90724000  0.52949000  0.31604000  1
  Ce  Ce22  1  0.99486000  0.23010000  0.64603000  1
  Ce  Ce23  1  0.99486000  0.73010000  0.85397000  1
  H  H24  1  0.09910000  0.49130000  0.18800000  1
  H  H25  1  0.09910000  0.99130000  0.31200000  1
  H  H26  1  0.10630000  0.15020000  0.26790000  1
  H  H27  1  0.10630000  0.65020000  0.23210000  1
  H  H28  1  0.13230000  0.01140000  0.40660000  1
  H  H29  1  0.13230000  0.51140000  0.09340000  1
  H  H30  1  0.13670000  0.26100000  0.52050000  1
  H  H31  1  0.13670000  0.76100000  0.97950000  1
  H  H32  1  0.14630000  0.08080000  0.31230000  1
  H  H33  1  0.14630000  0.58080000  0.18770000  1
  H  H34  1  0.15230000  0.42480000  0.13130000  1
  H  H35  1  0.15230000  0.92480000  0.36870000  1
  H  H36  1  0.17780000  0.29660000  0.59090000  1
  H  H37  1  0.17780000  0.79660000  0.90910000  1
  H  H38  1  0.21270000  0.29080000  0.10640000  1
  H  H39  1  0.21270000  0.79080000  0.39360000  1
  H  H40  1  0.22020000  0.07320000  0.41830000  1
  H  H41  1  0.22020000  0.57320000  0.08170000  1
  H  H42  1  0.27980000  0.07320000  0.91830000  1
  H  H43  1  0.27980000  0.57320000  0.58170000  1
  H  H44  1  0.28730000  0.29080000  0.60640000  1
  H  H45  1  0.28730000  0.79080000  0.89360000  1
  H  H46  1  0.32220000  0.29660000  0.09090000  1
  H  H47  1  0.32220000  0.79660000  0.40910000  1
  H  H48  1  0.34770000  0.42480000  0.63130000  1
  H  H49  1  0.34770000  0.92480000  0.86870000  1
  H  H50  1  0.35370000  0.08080000  0.81230000  1
  H  H51  1  0.35370000  0.58080000  0.68770000  1
  H  H52  1  0.36330000  0.26100000  0.02050000  1
  H  H53  1  0.36330000  0.76100000  0.47950000  1
  H  H54  1  0.36770000  0.01140000  0.90660000  1
  H  H55  1  0.36770000  0.51140000  0.59340000  1
  H  H56  1  0.39370000  0.15020000  0.76790000  1
  H  H57  1  0.39370000  0.65020000  0.73210000  1
  H  H58  1  0.40090000  0.49130000  0.68800000  1
  H  H59  1  0.40090000  0.99130000  0.81200000  1
  H  H60  1  0.59910000  0.00870000  0.18800000  1
  H  H61  1  0.59910000  0.50870000  0.31200000  1
  H  H62  1  0.60630000  0.34980000  0.26790000  1
  H  H63  1  0.60630000  0.84980000  0.23210000  1
  H  H64  1  0.63230000  0.48860000  0.40660000  1
  H  H65  1  0.63230000  0.98860000  0.09340000  1
  H  H66  1  0.63670000  0.23900000  0.52050000  1
  H  H67  1  0.63670000  0.73900000  0.97950000  1
  H  H68  1  0.64630000  0.41920000  0.31230000  1
  H  H69  1  0.64630000  0.91920000  0.18770000  1
  H  H70  1  0.65230000  0.07520000  0.13130000  1
  H  H71  1  0.65230000  0.57520000  0.36870000  1
  H  H72  1  0.67780000  0.20340000  0.59090000  1
  H  H73  1  0.67780000  0.70340000  0.90910000  1
  H  H74  1  0.71270000  0.20920000  0.10640000  1
  H  H75  1  0.71270000  0.70920000  0.39360000  1
  H  H76  1  0.72020000  0.42680000  0.41830000  1
  H  H77  1  0.72020000  0.92680000  0.08170000  1
  H  H78  1  0.77980000  0.42680000  0.91830000  1
  H  H79  1  0.77980000  0.92680000  0.58170000  1
  H  H80  1  0.78730000  0.20920000  0.60640000  1
  H  H81  1  0.78730000  0.70920000  0.89360000  1
  H  H82  1  0.82220000  0.20340000  0.09090000  1
  H  H83  1  0.82220000  0.70340000  0.40910000  1
  H  H84  1  0.84770000  0.07520000  0.63130000  1
  H  H85  1  0.84770000  0.57520000  0.86870000  1
  H  H86  1  0.85370000  0.41920000  0.81230000  1
  H  H87  1  0.85370000  0.91920000  0.68770000  1
  H  H88  1  0.86330000  0.23900000  0.02050000  1
  H  H89  1  0.86330000  0.73900000  0.47950000  1
  H  H90  1  0.86770000  0.48860000  0.90660000  1
  H  H91  1  0.86770000  0.98860000  0.59340000  1
  H  H92  1  0.89370000  0.34980000  0.76790000  1
  H  H93  1  0.89370000  0.84980000  0.73210000  1
  H  H94  1  0.90090000  0.00870000  0.68800000  1
  H  H95  1  0.90090000  0.50870000  0.81200000  1
  W  W96  1  0.06564000  0.47692000  0.90019000  1
  W  W97  1  0.06564000  0.97692000  0.59981000  1
  W  W98  1  0.09706000  0.01007000  0.12987000  1
  W  W99  1  0.09706000  0.51007000  0.37013000  1
  W  W100  1  0.12967000  0.09756000  0.63216000  1
  W  W101  1  0.12967000  0.59756000  0.86784000  1
  W  W102  1  0.15052000  0.40114000  0.80693000  1
  W  W103  1  0.15052000  0.90114000  0.69307000  1
  W  W104  1  0.15094000  0.05446000  0.52881000  1
  W  W105  1  0.15094000  0.55446000  0.97119000  1
  W  W106  1  0.16154000  0.37079000  0.40793000  1
  W  W107  1  0.16154000  0.87079000  0.09207000  1
  W  W108  1  0.17298000  0.07702000  0.04878000  1
  W  W109  1  0.17298000  0.57702000  0.45122000  1
  W  W110  1  0.18064000  0.36009000  0.92531000  1
  W  W111  1  0.18064000  0.86009000  0.57469000  1
  W  W112  1  0.19193000  0.42084000  0.29131000  1
  W  W113  1  0.19193000  0.92084000  0.20869000  1
  W  W114  1  0.19347000  0.11801000  0.15287000  1
  W  W115  1  0.19347000  0.61801000  0.34713000  1
  W  W116  1  0.20738000  0.02444000  0.72620000  1
  W  W117  1  0.20738000  0.52444000  0.77380000  1
  W  W118  1  0.23033000  0.43781000  0.49344000  1
  W  W119  1  0.23033000  0.93781000  0.00656000  1
  W  W120  1  0.26967000  0.43781000  0.99344000  1
  W  W121  1  0.26967000  0.93781000  0.50656000  1
  W  W122  1  0.29262000  0.02444000  0.22620000  1
  W  W123  1  0.29262000  0.52444000  0.27380000  1
  W  W124  1  0.30653000  0.11801000  0.65287000  1
  W  W125  1  0.30653000  0.61801000  0.84713000  1
  W  W126  1  0.30807000  0.42084000  0.79131000  1
  W  W127  1  0.30807000  0.92084000  0.70869000  1
  W  W128  1  0.31936000  0.36009000  0.42531000  1
  W  W129  1  0.31936000  0.86009000  0.07469000  1
  W  W130  1  0.32702000  0.07702000  0.54878000  1
  W  W131  1  0.32702000  0.57702000  0.95122000  1
  W  W132  1  0.33846000  0.37079000  0.90793000  1
  W  W133  1  0.33846000  0.87079000  0.59207000  1
  W  W134  1  0.34906000  0.05446000  0.02881000  1
  W  W135  1  0.34906000  0.55446000  0.47119000  1
  W  W136  1  0.34948000  0.40114000  0.30693000  1
  W  W137  1  0.34948000  0.90114000  0.19307000  1
  W  W138  1  0.37033000  0.09756000  0.13216000  1
  W  W139  1  0.37033000  0.59756000  0.36784000  1
  W  W140  1  0.40294000  0.01007000  0.62987000  1
  W  W141  1  0.40294000  0.51007000  0.87013000  1
  W  W142  1  0.43436000  0.47692000  0.40019000  1
  W  W143  1  0.43436000  0.97692000  0.09981000  1
  W  W144  1  0.56564000  0.02308000  0.90019000  1
  W  W145  1  0.56564000  0.52308000  0.59981000  1
  W  W146  1  0.59706000  0.48993000  0.12987000  1
  W  W147  1  0.59706000  0.98993000  0.37013000  1
  W  W148  1  0.62967000  0.40244000  0.63216000  1
  W  W149  1  0.62967000  0.90244000  0.86784000  1
  W  W150  1  0.65052000  0.09886000  0.80693000  1
  W  W151  1  0.65052000  0.59886000  0.69307000  1
  W  W152  1  0.65094000  0.44554000  0.52881000  1
  W  W153  1  0.65094000  0.94554000  0.97119000  1
  W  W154  1  0.66154000  0.12921000  0.40793000  1
  W  W155  1  0.66154000  0.62921000  0.09207000  1
  W  W156  1  0.67298000  0.42298000  0.04878000  1
  W  W157  1  0.67298000  0.92298000  0.45122000  1
  W  W158  1  0.68064000  0.13991000  0.92531000  1
  W  W159  1  0.68064000  0.63991000  0.57469000  1
  W  W160  1  0.69193000  0.07916000  0.29131000  1
  W  W161  1  0.69193000  0.57916000  0.20869000  1
  W  W162  1  0.69347000  0.38199000  0.15287000  1
  W  W163  1  0.69347000  0.88199000  0.34713000  1
  W  W164  1  0.70738000  0.47556000  0.72620000  1
  W  W165  1  0.70738000  0.97556000  0.77380000  1
  W  W166  1  0.73033000  0.06219000  0.49344000  1
  W  W167  1  0.73033000  0.56219000  0.00656000  1
  W  W168  1  0.76967000  0.06219000  0.99344000  1
  W  W169  1  0.76967000  0.56219000  0.50656000  1
  W  W170  1  0.79262000  0.47556000  0.22620000  1
  W  W171  1  0.79262000  0.97556000  0.27380000  1
  W  W172  1  0.80653000  0.38199000  0.65287000  1
  W  W173  1  0.80653000  0.88199000  0.84713000  1
  W  W174  1  0.80807000  0.07916000  0.79131000  1
  W  W175  1  0.80807000  0.57916000  0.70869000  1
  W  W176  1  0.81936000  0.13991000  0.42531000  1
  W  W177  1  0.81936000  0.63991000  0.07469000  1
  W  W178  1  0.82702000  0.42298000  0.54878000  1
  W  W179  1  0.82702000  0.92298000  0.95122000  1
  W  W180  1  0.83846000  0.12921000  0.90793000  1
  W  W181  1  0.83846000  0.62921000  0.59207000  1
  W  W182  1  0.84906000  0.44554000  0.02881000  1
  W  W183  1  0.84906000  0.94554000  0.47119000  1
  W  W184  1  0.84948000  0.09886000  0.30693000  1
  W  W185  1  0.84948000  0.59886000  0.19307000  1
  W  W186  1  0.87033000  0.40244000  0.13216000  1
  W  W187  1  0.87033000  0.90244000  0.36784000  1
  W  W188  1  0.90294000  0.48993000  0.62987000  1
  W  W189  1  0.90294000  0.98993000  0.87013000  1
  W  W190  1  0.93436000  0.02308000  0.40019000  1
  W  W191  1  0.93436000  0.52308000  0.09981000  1
  C  C192  1  0.00200000  0.04450000  0.74150000  1
  C  C193  1  0.00200000  0.54450000  0.75850000  1
  C  C194  1  0.00610000  0.14210000  0.20830000  1
  C  C195  1  0.00610000  0.64210000  0.29170000  1
  C  C196  1  0.03140000  0.01140000  0.26630000  1
  C  C197  1  0.03140000  0.51140000  0.23370000  1
  C  C198  1  0.03540000  0.10250000  0.24090000  1
  C  C199  1  0.03540000  0.60250000  0.25910000  1
  C  C200  1  0.08290000  0.02030000  0.29370000  1
  C  C201  1  0.08290000  0.52030000  0.20630000  1
  C  C202  1  0.08750000  0.11420000  0.26780000  1
  C  C203  1  0.08750000  0.61420000  0.23220000  1
  C  C204  1  0.11060000  0.07340000  0.29370000  1
  C  C205  1  0.11060000  0.57340000  0.20630000  1
  C  C206  1  0.11360000  0.24840000  0.05360000  1
  C  C207  1  0.11360000  0.74840000  0.44640000  1
  C  C208  1  0.15770000  0.06990000  0.88300000  1
  C  C209  1  0.15770000  0.56990000  0.61700000  1
  C  C210  1  0.17340000  0.00310000  0.39500000  1
  C  C211  1  0.17340000  0.50310000  0.10500000  1
  C  C212  1  0.18080000  0.25940000  0.52770000  1
  C  C213  1  0.18080000  0.75940000  0.97230000  1
  C  C214  1  0.18480000  0.45220000  0.12840000  1
  C  C215  1  0.18480000  0.95220000  0.37160000  1
  C  C216  1  0.18520000  0.25400000  0.04660000  1
  C  C217  1  0.18520000  0.75400000  0.45340000  1
  C  C218  1  0.20600000  0.28070000  0.56980000  1
  C  C219  1  0.20600000  0.78070000  0.93020000  1
  C  C220  1  0.21210000  0.21170000  0.45220000  1
  C  C221  1  0.21210000  0.71170000  0.04780000  1
  C  C222  1  0.21570000  0.03030000  0.87900000  1
  C  C223  1  0.21570000  0.53030000  0.62100000  1
  C  C224  1  0.22520000  0.04090000  0.40040000  1
  C  C225  1  0.22520000  0.54090000  0.09960000  1
  C  C226  1  0.22860000  0.27750000  0.07900000  1
  C  C227  1  0.22860000  0.77750000  0.42100000  1
  C  C228  1  0.22890000  0.23560000  0.49760000  1
  C  C229  1  0.22890000  0.73560000  0.00240000  1
  C  C230  1  0.22980000  0.39240000  0.67060000  1
  C  C231  1  0.22980000  0.89240000  0.82940000  1
  C  C232  1  0.24710000  0.44410000  0.14740000  1
  C  C233  1  0.24710000  0.94410000  0.35260000  1
  C  C234  1  0.25290000  0.44410000  0.64740000  1
  C  C235  1  0.25290000  0.94410000  0.85260000  1
  C  C236  1  0.27020000  0.39240000  0.17060000  1
  C  C237  1  0.27020000  0.89240000  0.32940000  1
  C  C238  1  0.27110000  0.23560000  0.99760000  1
  C  C239  1  0.27110000  0.73560000  0.50240000  1
  C  C240  1  0.27140000  0.27750000  0.57900000  1
  C  C241  1  0.27140000  0.77750000  0.92100000  1
  C  C242  1  0.27480000  0.04090000  0.90040000  1
  C  C243  1  0.27480000  0.54090000  0.59960000  1
  C  C244  1  0.28430000  0.03030000  0.37900000  1
  C  C245  1  0.28430000  0.53030000  0.12100000  1
  C  C246  1  0.28790000  0.21170000  0.95220000  1
  C  C247  1  0.28790000  0.71170000  0.54780000  1
  C  C248  1  0.29400000  0.28070000  0.06980000  1
  C  C249  1  0.29400000  0.78070000  0.43020000  1
  C  C250  1  0.31480000  0.25400000  0.54660000  1
  C  C251  1  0.31480000  0.75400000  0.95340000  1
  C  C252  1  0.31520000  0.45220000  0.62840000  1
  C  C253  1  0.31520000  0.95220000  0.87160000  1
  C  C254  1  0.31920000  0.25940000  0.02770000  1
  C  C255  1  0.31920000  0.75940000  0.47230000  1
  C  C256  1  0.32660000  0.00310000  0.89500000  1
  C  C257  1  0.32660000  0.50310000  0.60500000  1
  C  C258  1  0.34230000  0.06990000  0.38300000  1
  C  C259  1  0.34230000  0.56990000  0.11700000  1
  C  C260  1  0.38640000  0.24840000  0.55360000  1
  C  C261  1  0.38640000  0.74840000  0.94640000  1
  C  C262  1  0.38940000  0.07340000  0.79370000  1
  C  C263  1  0.38940000  0.57340000  0.70630000  1
  C  C264  1  0.41250000  0.11420000  0.76780000  1
  C  C265  1  0.41250000  0.61420000  0.73220000  1
  C  C266  1  0.41710000  0.02030000  0.79370000  1
  C  C267  1  0.41710000  0.52030000  0.70630000  1
  C  C268  1  0.46460000  0.10250000  0.74090000  1
  C  C269  1  0.46460000  0.60250000  0.75910000  1
  C  C270  1  0.46860000  0.01140000  0.76630000  1
  C  C271  1  0.46860000  0.51140000  0.73370000  1
  C  C272  1  0.49390000  0.14210000  0.70830000  1
  C  C273  1  0.49390000  0.64210000  0.79170000  1
  C  C274  1  0.49800000  0.04450000  0.24150000  1
  C  C275  1  0.49800000  0.54450000  0.25850000  1
  C  C276  1  0.50200000  0.45550000  0.74150000  1
  C  C277  1  0.50200000  0.95550000  0.75850000  1
  C  C278  1  0.50610000  0.35790000  0.20830000  1
  C  C279  1  0.50610000  0.85790000  0.29170000  1
  C  C280  1  0.53140000  0.48860000  0.26630000  1
  C  C281  1  0.53140000  0.98860000  0.23370000  1
  C  C282  1  0.53540000  0.39750000  0.24090000  1
  C  C283  1  0.53540000  0.89750000  0.25910000  1
  C  C284  1  0.58290000  0.47970000  0.29370000  1
  C  C285  1  0.58290000  0.97970000  0.20630000  1
  C  C286  1  0.58750000  0.38580000  0.26780000  1
  C  C287  1  0.58750000  0.88580000  0.23220000  1
  C  C288  1  0.61060000  0.42660000  0.29370000  1
  C  C289  1  0.61060000  0.92660000  0.20630000  1
  C  C290  1  0.61360000  0.25160000  0.05360000  1
  C  C291  1  0.61360000  0.75160000  0.44640000  1
  C  C292  1  0.65770000  0.43010000  0.88300000  1
  C  C293  1  0.65770000  0.93010000  0.61700000  1
  C  C294  1  0.67340000  0.49690000  0.39500000  1
  C  C295  1  0.67340000  0.99690000  0.10500000  1
  C  C296  1  0.68080000  0.24060000  0.52770000  1
  C  C297  1  0.68080000  0.74060000  0.97230000  1
  C  C298  1  0.68480000  0.04780000  0.12840000  1
  C  C299  1  0.68480000  0.54780000  0.37160000  1
  C  C300  1  0.68520000  0.24600000  0.04660000  1
  C  C301  1  0.68520000  0.74600000  0.45340000  1
  C  C302  1  0.70600000  0.21930000  0.56980000  1
  C  C303  1  0.70600000  0.71930000  0.93020000  1
  C  C304  1  0.71210000  0.28830000  0.45220000  1
  C  C305  1  0.71210000  0.78830000  0.04780000  1
  C  C306  1  0.71570000  0.46970000  0.87900000  1
  C  C307  1  0.71570000  0.96970000  0.62100000  1
  C  C308  1  0.72520000  0.45910000  0.40040000  1
  C  C309  1  0.72520000  0.95910000  0.09960000  1
  C  C310  1  0.72860000  0.22250000  0.07900000  1
  C  C311  1  0.72860000  0.72250000  0.42100000  1
  C  C312  1  0.72890000  0.26440000  0.49760000  1
  C  C313  1  0.72890000  0.76440000  0.00240000  1
  C  C314  1  0.72980000  0.10760000  0.67060000  1
  C  C315  1  0.72980000  0.60760000  0.82940000  1
  C  C316  1  0.74710000  0.05590000  0.14740000  1
  C  C317  1  0.74710000  0.55590000  0.35260000  1
  C  C318  1  0.75290000  0.05590000  0.64740000  1
  C  C319  1  0.75290000  0.55590000  0.85260000  1
  C  C320  1  0.77020000  0.10760000  0.17060000  1
  C  C321  1  0.77020000  0.60760000  0.32940000  1
  C  C322  1  0.77110000  0.26440000  0.99760000  1
  C  C323  1  0.77110000  0.76440000  0.50240000  1
  C  C324  1  0.77140000  0.22250000  0.57900000  1
  C  C325  1  0.77140000  0.72250000  0.92100000  1
  C  C326  1  0.77480000  0.45910000  0.90040000  1
  C  C327  1  0.77480000  0.95910000  0.59960000  1
  C  C328  1  0.78430000  0.46970000  0.37900000  1
  C  C329  1  0.78430000  0.96970000  0.12100000  1
  C  C330  1  0.78790000  0.28830000  0.95220000  1
  C  C331  1  0.78790000  0.78830000  0.54780000  1
  C  C332  1  0.79400000  0.21930000  0.06980000  1
  C  C333  1  0.79400000  0.71930000  0.43020000  1
  C  C334  1  0.81480000  0.24600000  0.54660000  1
  C  C335  1  0.81480000  0.74600000  0.95340000  1
  C  C336  1  0.81520000  0.04780000  0.62840000  1
  C  C337  1  0.81520000  0.54780000  0.87160000  1
  C  C338  1  0.81920000  0.24060000  0.02770000  1
  C  C339  1  0.81920000  0.74060000  0.47230000  1
  C  C340  1  0.82660000  0.49690000  0.89500000  1
  C  C341  1  0.82660000  0.99690000  0.60500000  1
  C  C342  1  0.84230000  0.43010000  0.38300000  1
  C  C343  1  0.84230000  0.93010000  0.11700000  1
  C  C344  1  0.88640000  0.25160000  0.55360000  1
  C  C345  1  0.88640000  0.75160000  0.94640000  1
  C  C346  1  0.88940000  0.42660000  0.79370000  1
  C  C347  1  0.88940000  0.92660000  0.70630000  1
  C  C348  1  0.91250000  0.38580000  0.76780000  1
  C  C349  1  0.91250000  0.88580000  0.73220000  1
  C  C350  1  0.91710000  0.47970000  0.79370000  1
  C  C351  1  0.91710000  0.97970000  0.70630000  1
  C  C352  1  0.96460000  0.39750000  0.74090000  1
  C  C353  1  0.96460000  0.89750000  0.75910000  1
  C  C354  1  0.96860000  0.48860000  0.76630000  1
  C  C355  1  0.96860000  0.98860000  0.73370000  1
  C  C356  1  0.99390000  0.35790000  0.70830000  1
  C  C357  1  0.99390000  0.85790000  0.79170000  1
  C  C358  1  0.99800000  0.45550000  0.24150000  1
  C  C359  1  0.99800000  0.95550000  0.25850000  1
  N  N360  1  0.00510000  0.05020000  0.23960000  1
  N  N361  1  0.00510000  0.55020000  0.26040000  1
  N  N362  1  0.20500000  0.48480000  0.64460000  1
  N  N363  1  0.20500000  0.98480000  0.85540000  1
  N  N364  1  0.20640000  0.23210000  0.00750000  1
  N  N365  1  0.20640000  0.73210000  0.49250000  1
  N  N366  1  0.29360000  0.23210000  0.50750000  1
  N  N367  1  0.29360000  0.73210000  0.99250000  1
  N  N368  1  0.29500000  0.48480000  0.14460000  1
  N  N369  1  0.29500000  0.98480000  0.35540000  1
  N  N370  1  0.49490000  0.05020000  0.73960000  1
  N  N371  1  0.49490000  0.55020000  0.76040000  1
  N  N372  1  0.50510000  0.44980000  0.23960000  1
  N  N373  1  0.50510000  0.94980000  0.26040000  1
  N  N374  1  0.70500000  0.01520000  0.64460000  1
  N  N375  1  0.70500000  0.51520000  0.85540000  1
  N  N376  1  0.70640000  0.26790000  0.00750000  1
  N  N377  1  0.70640000  0.76790000  0.49250000  1
  N  N378  1  0.79360000  0.26790000  0.50750000  1
  N  N379  1  0.79360000  0.76790000  0.99250000  1
  N  N380  1  0.79500000  0.01520000  0.14460000  1
  N  N381  1  0.79500000  0.51520000  0.35540000  1
  N  N382  1  0.99490000  0.44980000  0.73960000  1
  N  N383  1  0.99490000  0.94980000  0.76040000  1
  O  O384  1  0.01620000  0.00670000  0.14520000  1
  O  O385  1  0.01620000  0.50670000  0.35480000  1
  O  O386  1  0.01820000  0.41420000  0.21360000  1
  O  O387  1  0.01820000  0.91420000  0.28640000  1
  O  O388  1  0.02780000  0.19260000  0.20350000  1
  O  O389  1  0.02780000  0.69260000  0.29650000  1
  O  O390  1  0.04050000  0.37590000  0.68360000  1
  O  O391  1  0.04050000  0.87590000  0.81640000  1
  O  O392  1  0.04210000  0.05380000  0.77160000  1
  O  O393  1  0.04210000  0.55380000  0.72840000  1
  O  O394  1  0.04950000  0.04760000  0.62660000  1
  O  O395  1  0.04950000  0.54760000  0.87340000  1
  O  O396  1  0.07420000  0.01220000  0.54010000  1
  O  O397  1  0.07420000  0.51220000  0.95990000  1
  O  O398  1  0.08020000  0.23120000  0.02230000  1
  O  O399  1  0.08020000  0.73120000  0.47770000  1
  O  O400  1  0.08420000  0.15590000  0.64980000  1
  O  O401  1  0.08420000  0.65590000  0.85020000  1
  O  O402  1  0.08810000  0.05140000  0.07580000  1
  O  O403  1  0.08810000  0.55140000  0.42420000  1
  O  O404  1  0.09190000  0.44270000  0.84500000  1
  O  O405  1  0.09190000  0.94270000  0.65500000  1
  O  O406  1  0.09540000  0.26390000  0.09320000  1
  O  O407  1  0.09540000  0.76390000  0.40680000  1
  O  O408  1  0.10770000  0.05600000  0.86270000  1
  O  O409  1  0.10770000  0.55600000  0.63730000  1
  O  O410  1  0.11080000  0.44180000  0.39840000  1
  O  O411  1  0.11080000  0.94180000  0.10160000  1
  O  O412  1  0.11330000  0.08340000  0.16210000  1
  O  O413  1  0.11330000  0.58340000  0.33790000  1
  O  O414  1  0.11510000  0.41330000  0.92840000  1
  O  O415  1  0.11510000  0.91330000  0.57160000  1
  O  O416  1  0.12110000  0.11560000  0.56860000  1
  O  O417  1  0.12110000  0.61560000  0.93140000  1
  O  O418  1  0.13530000  0.47420000  0.31740000  1
  O  O419  1  0.13530000  0.97420000  0.18260000  1
  O  O420  1  0.13980000  0.29860000  0.93730000  1
  O  O421  1  0.13980000  0.79860000  0.56270000  1
  O  O422  1  0.14070000  0.11710000  0.00470000  1
  O  O423  1  0.14070000  0.61710000  0.49530000  1
  O  O424  1  0.14260000  0.46060000  0.76230000  1
  O  O425  1  0.14260000  0.96060000  0.73770000  1
  O  O426  1  0.14410000  0.05760000  0.68840000  1
  O  O427  1  0.14410000  0.55760000  0.81160000  1
  O  O428  1  0.14730000  0.21050000  0.44500000  1
  O  O429  1  0.14730000  0.71050000  0.05500000  1
  O  O430  1  0.16150000  0.39000000  0.47120000  1
  O  O431  1  0.16150000  0.89000000  0.02880000  1
  O  O432  1  0.16190000  0.02160000  0.59990000  1
  O  O433  1  0.16190000  0.52160000  0.90010000  1
  O  O434  1  0.16530000  0.11270000  0.90720000  1
  O  O435  1  0.16530000  0.61270000  0.59280000  1
  O  O436  1  0.17230000  0.13860000  0.09260000  1
  O  O437  1  0.17230000  0.36130000  0.86200000  1
  O  O438  1  0.17230000  0.63860000  0.40740000  1
  O  O439  1  0.17230000  0.86130000  0.63800000  1
  O  O440  1  0.17460000  0.38870000  0.68450000  1
  O  O441  1  0.17460000  0.88870000  0.81550000  1
  O  O442  1  0.17850000  0.00450000  0.02050000  1
  O  O443  1  0.17850000  0.50450000  0.47950000  1
  O  O444  1  0.18030000  0.37620000  0.34580000  1
  O  O445  1  0.18030000  0.87620000  0.15420000  1
  O  O446  1  0.18550000  0.05440000  0.77610000  1
  O  O447  1  0.18550000  0.55440000  0.72390000  1
  O  O448  1  0.19640000  0.03600000  0.11270000  1
  O  O449  1  0.19640000  0.53600000  0.38730000  1
  O  O450  1  0.19720000  0.49020000  0.99240000  1
  O  O451  1  0.19720000  0.99020000  0.50760000  1
  O  O452  1  0.20860000  0.37800000  0.98630000  1
  O  O453  1  0.20860000  0.87800000  0.51370000  1
  O  O454  1  0.21390000  0.12470000  0.63570000  1
  O  O455  1  0.21390000  0.62470000  0.86430000  1
  O  O456  1  0.22420000  0.46500000  0.82590000  1
  O  O457  1  0.22420000  0.96500000  0.67410000  1
  O  O458  1  0.22430000  0.47530000  0.24940000  1
  O  O459  1  0.22430000  0.97530000  0.25060000  1
  O  O460  1  0.22770000  0.35150000  0.17510000  1
  O  O461  1  0.22770000  0.85150000  0.32490000  1
  O  O462  1  0.22990000  0.37320000  0.78020000  1
  O  O463  1  0.22990000  0.87320000  0.71980000  1
  O  O464  1  0.23080000  0.07490000  0.20300000  1
  O  O465  1  0.23080000  0.57490000  0.29700000  1
  O  O466  1  0.23370000  0.32270000  0.41680000  1
  O  O467  1  0.23370000  0.82270000  0.08320000  1
  O  O468  1  0.23910000  0.08630000  0.53790000  1
  O  O469  1  0.23910000  0.58630000  0.96210000  1
  O  O470  1  0.24560000  0.19560000  0.92740000  1
  O  O471  1  0.24560000  0.69560000  0.57260000  1
  O  O472  1  0.24750000  0.42890000  0.41940000  1
  O  O473  1  0.24750000  0.92890000  0.08060000  1
  O  O474  1  0.25250000  0.42890000  0.91940000  1
  O  O475  1  0.25250000  0.92890000  0.58060000  1
  O  O476  1  0.25440000  0.19560000  0.42740000  1
  O  O477  1  0.25440000  0.69560000  0.07260000  1
  O  O478  1  0.26090000  0.08630000  0.03790000  1
  O  O479  1  0.26090000  0.58630000  0.46210000  1
  O  O480  1  0.26630000  0.32270000  0.91680000  1
  O  O481  1  0.26630000  0.82270000  0.58320000  1
  O  O482  1  0.26920000  0.07490000  0.70300000  1
  O  O483  1  0.26920000  0.57490000  0.79700000  1
  O  O484  1  0.27010000  0.37320000  0.28020000  1
  O  O485  1  0.27010000  0.87320000  0.21980000  1
  O  O486  1  0.27230000  0.35150000  0.67510000  1
  O  O487  1  0.27230000  0.85150000  0.82490000  1
  O  O488  1  0.27570000  0.47530000  0.74940000  1
  O  O489  1  0.27570000  0.97530000  0.75060000  1
  O  O490  1  0.27580000  0.46500000  0.32590000  1
  O  O491  1  0.27580000  0.96500000  0.17410000  1
  O  O492  1  0.28610000  0.12470000  0.13570000  1
  O  O493  1  0.28610000  0.62470000  0.36430000  1
  O  O494  1  0.29140000  0.37800000  0.48630000  1
  O  O495  1  0.29140000  0.87800000  0.01370000  1
  O  O496  1  0.30280000  0.49020000  0.49240000  1
  O  O497  1  0.30280000  0.99020000  0.00760000  1
  O  O498  1  0.30360000  0.03600000  0.61270000  1
  O  O499  1  0.30360000  0.53600000  0.88730000  1
  O  O500  1  0.31450000  0.05440000  0.27610000  1
  O  O501  1  0.31450000  0.55440000  0.22390000  1
  O  O502  1  0.31970000  0.37620000  0.84580000  1
  O  O503  1  0.31970000  0.87620000  0.65420000  1
  O  O504  1  0.32150000  0.00450000  0.52050000  1
  O  O505  1  0.32150000  0.50450000  0.97950000  1
  O  O506  1  0.32540000  0.38870000  0.18450000  1
  O  O507  1  0.32540000  0.88870000  0.31550000  1
  O  O508  1  0.32770000  0.13860000  0.59260000  1
  O  O509  1  0.32770000  0.36130000  0.36200000  1
  O  O510  1  0.32770000  0.63860000  0.90740000  1
  O  O511  1  0.32770000  0.86130000  0.13800000  1
  O  O512  1  0.33470000  0.11270000  0.40720000  1
  O  O513  1  0.33470000  0.61270000  0.09280000  1
  O  O514  1  0.33810000  0.02160000  0.09990000  1
  O  O515  1  0.33810000  0.52160000  0.40010000  1
  O  O516  1  0.33850000  0.39000000  0.97120000  1
  O  O517  1  0.33850000  0.89000000  0.52880000  1
  O  O518  1  0.35270000  0.21050000  0.94500000  1
  O  O519  1  0.35270000  0.71050000  0.55500000  1
  O  O520  1  0.35590000  0.05760000  0.18840000  1
  O  O521  1  0.35590000  0.55760000  0.31160000  1
  O  O522  1  0.35740000  0.46060000  0.26230000  1
  O  O523  1  0.35740000  0.96060000  0.23770000  1
  O  O524  1  0.35930000  0.11710000  0.50470000  1
  O  O525  1  0.35930000  0.61710000  0.99530000  1
  O  O526  1  0.36020000  0.29860000  0.43730000  1
  O  O527  1  0.36020000  0.79860000  0.06270000  1
  O  O528  1  0.36470000  0.47420000  0.81740000  1
  O  O529  1  0.36470000  0.97420000  0.68260000  1
  O  O530  1  0.37890000  0.11560000  0.06860000  1
  O  O531  1  0.37890000  0.61560000  0.43140000  1
  O  O532  1  0.38490000  0.41330000  0.42840000  1
  O  O533  1  0.38490000  0.91330000  0.07160000  1
  O  O534  1  0.38670000  0.08340000  0.66210000  1
  O  O535  1  0.38670000  0.58340000  0.83790000  1
  O  O536  1  0.38920000  0.44180000  0.89840000  1
  O  O537  1  0.38920000  0.94180000  0.60160000  1
  O  O538  1  0.39230000  0.05600000  0.36270000  1
  O  O539  1  0.39230000  0.55600000  0.13730000  1
  O  O540  1  0.40460000  0.26390000  0.59320000  1
  O  O541  1  0.40460000  0.76390000  0.90680000  1
  O  O542  1  0.40810000  0.44270000  0.34500000  1
  O  O543  1  0.40810000  0.94270000  0.15500000  1
  O  O544  1  0.41190000  0.05140000  0.57580000  1
  O  O545  1  0.41190000  0.55140000  0.92420000  1
  O  O546  1  0.41580000  0.15590000  0.14980000  1
  O  O547  1  0.41580000  0.65590000  0.35020000  1
  O  O548  1  0.41980000  0.23120000  0.52230000  1
  O  O549  1  0.41980000  0.73120000  0.97770000  1
  O  O550  1  0.42580000  0.01220000  0.04010000  1
  O  O551  1  0.42580000  0.51220000  0.45990000  1
  O  O552  1  0.45050000  0.04760000  0.12660000  1
  O  O553  1  0.45050000  0.54760000  0.37340000  1
  O  O554  1  0.45790000  0.05380000  0.27160000  1
  O  O555  1  0.45790000  0.55380000  0.22840000  1
  O  O556  1  0.45950000  0.37590000  0.18360000  1
  O  O557  1  0.45950000  0.87590000  0.31640000  1
  O  O558  1  0.47220000  0.19260000  0.70350000  1
  O  O559  1  0.47220000  0.69260000  0.79650000  1
  O  O560  1  0.48180000  0.41420000  0.71360000  1
  O  O561  1  0.48180000  0.91420000  0.78640000  1
  O  O562  1  0.48380000  0.00670000  0.64520000  1
  O  O563  1  0.48380000  0.50670000  0.85480000  1
  O  O564  1  0.51620000  0.49330000  0.14520000  1
  O  O565  1  0.51620000  0.99330000  0.35480000  1
  O  O566  1  0.51820000  0.08580000  0.21360000  1
  O  O567  1  0.51820000  0.58580000  0.28640000  1
  O  O568  1  0.52780000  0.30740000  0.20350000  1
  O  O569  1  0.52780000  0.80740000  0.29650000  1
  O  O570  1  0.54050000  0.12410000  0.68360000  1
  O  O571  1  0.54050000  0.62410000  0.81640000  1
  O  O572  1  0.54210000  0.44620000  0.77160000  1
  O  O573  1  0.54210000  0.94620000  0.72840000  1
  O  O574  1  0.54950000  0.45240000  0.62660000  1
  O  O575  1  0.54950000  0.95240000  0.87340000  1
  O  O576  1  0.57420000  0.48780000  0.54010000  1
  O  O577  1  0.57420000  0.98780000  0.95990000  1
  O  O578  1  0.58020000  0.26880000  0.02230000  1
  O  O579  1  0.58020000  0.76880000  0.47770000  1
  O  O580  1  0.58420000  0.34410000  0.64980000  1
  O  O581  1  0.58420000  0.84410000  0.85020000  1
  O  O582  1  0.58810000  0.44860000  0.07580000  1
  O  O583  1  0.58810000  0.94860000  0.42420000  1
  O  O584  1  0.59190000  0.05730000  0.84500000  1
  O  O585  1  0.59190000  0.55730000  0.65500000  1
  O  O586  1  0.59540000  0.23610000  0.09320000  1
  O  O587  1  0.59540000  0.73610000  0.40680000  1
  O  O588  1  0.60770000  0.44400000  0.86270000  1
  O  O589  1  0.60770000  0.94400000  0.63730000  1
  O  O590  1  0.61080000  0.05820000  0.39840000  1
  O  O591  1  0.61080000  0.55820000  0.10160000  1
  O  O592  1  0.61330000  0.41660000  0.16210000  1
  O  O593  1  0.61330000  0.91660000  0.33790000  1
  O  O594  1  0.61510000  0.08670000  0.92840000  1
  O  O595  1  0.61510000  0.58670000  0.57160000  1
  O  O596  1  0.62110000  0.38440000  0.56860000  1
  O  O597  1  0.62110000  0.88440000  0.93140000  1
  O  O598  1  0.63530000  0.02580000  0.31740000  1
  O  O599  1  0.63530000  0.52580000  0.18260000  1
  O  O600  1  0.63980000  0.20140000  0.93730000  1
  O  O601  1  0.63980000  0.70140000  0.56270000  1
  O  O602  1  0.64070000  0.38290000  0.00470000  1
  O  O603  1  0.64070000  0.88290000  0.49530000  1
  O  O604  1  0.64260000  0.03940000  0.76230000  1
  O  O605  1  0.64260000  0.53940000  0.73770000  1
  O  O606  1  0.64410000  0.44240000  0.68840000  1
  O  O607  1  0.64410000  0.94240000  0.81160000  1
  O  O608  1  0.64730000  0.28950000  0.44500000  1
  O  O609  1  0.64730000  0.78950000  0.05500000  1
  O  O610  1  0.66150000  0.11000000  0.47120000  1
  O  O611  1  0.66150000  0.61000000  0.02880000  1
  O  O612  1  0.66190000  0.47840000  0.59990000  1
  O  O613  1  0.66190000  0.97840000  0.90010000  1
  O  O614  1  0.66530000  0.38730000  0.90720000  1
  O  O615  1  0.66530000  0.88730000  0.59280000  1
  O  O616  1  0.67230000  0.13870000  0.86200000  1
  O  O617  1  0.67230000  0.36140000  0.09260000  1
  O  O618  1  0.67230000  0.63870000  0.63800000  1
  O  O619  1  0.67230000  0.86140000  0.40740000  1
  O  O620  1  0.67460000  0.11130000  0.68450000  1
  O  O621  1  0.67460000  0.61130000  0.81550000  1
  O  O622  1  0.67850000  0.49550000  0.02050000  1
  O  O623  1  0.67850000  0.99550000  0.47950000  1
  O  O624  1  0.68030000  0.12380000  0.34580000  1
  O  O625  1  0.68030000  0.62380000  0.15420000  1
  O  O626  1  0.68550000  0.44560000  0.77610000  1
  O  O627  1  0.68550000  0.94560000  0.72390000  1
  O  O628  1  0.69640000  0.46400000  0.11270000  1
  O  O629  1  0.69640000  0.96400000  0.38730000  1
  O  O630  1  0.69720000  0.00980000  0.99240000  1
  O  O631  1  0.69720000  0.50980000  0.50760000  1
  O  O632  1  0.70860000  0.12200000  0.98630000  1
  O  O633  1  0.70860000  0.62200000  0.51370000  1
  O  O634  1  0.71390000  0.37530000  0.63570000  1
  O  O635  1  0.71390000  0.87530000  0.86430000  1
  O  O636  1  0.72420000  0.03500000  0.82590000  1
  O  O637  1  0.72420000  0.53500000  0.67410000  1
  O  O638  1  0.72430000  0.02470000  0.24940000  1
  O  O639  1  0.72430000  0.52470000  0.25060000  1
  O  O640  1  0.72770000  0.14850000  0.17510000  1
  O  O641  1  0.72770000  0.64850000  0.32490000  1
  O  O642  1  0.72990000  0.12680000  0.78020000  1
  O  O643  1  0.72990000  0.62680000  0.71980000  1
  O  O644  1  0.73080000  0.42510000  0.20300000  1
  O  O645  1  0.73080000  0.92510000  0.29700000  1
  O  O646  1  0.73370000  0.17730000  0.41680000  1
  O  O647  1  0.73370000  0.67730000  0.08320000  1
  O  O648  1  0.73910000  0.41370000  0.53790000  1
  O  O649  1  0.73910000  0.91370000  0.96210000  1
  O  O650  1  0.74560000  0.30440000  0.92740000  1
  O  O651  1  0.74560000  0.80440000  0.57260000  1
  O  O652  1  0.74750000  0.07110000  0.41940000  1
  O  O653  1  0.74750000  0.57110000  0.08060000  1
  O  O654  1  0.75250000  0.07110000  0.91940000  1
  O  O655  1  0.75250000  0.57110000  0.58060000  1
  O  O656  1  0.75440000  0.30440000  0.42740000  1
  O  O657  1  0.75440000  0.80440000  0.07260000  1
  O  O658  1  0.76090000  0.41370000  0.03790000  1
  O  O659  1  0.76090000  0.91370000  0.46210000  1
  O  O660  1  0.76630000  0.17730000  0.91680000  1
  O  O661  1  0.76630000  0.67730000  0.58320000  1
  O  O662  1  0.76920000  0.42510000  0.70300000  1
  O  O663  1  0.76920000  0.92510000  0.79700000  1
  O  O664  1  0.77010000  0.12680000  0.28020000  1
  O  O665  1  0.77010000  0.62680000  0.21980000  1
  O  O666  1  0.77230000  0.14850000  0.67510000  1
  O  O667  1  0.77230000  0.64850000  0.82490000  1
  O  O668  1  0.77570000  0.02470000  0.74940000  1
  O  O669  1  0.77570000  0.52470000  0.75060000  1
  O  O670  1  0.77580000  0.03500000  0.32590000  1
  O  O671  1  0.77580000  0.53500000  0.17410000  1
  O  O672  1  0.78610000  0.37530000  0.13570000  1
  O  O673  1  0.78610000  0.87530000  0.36430000  1
  O  O674  1  0.79140000  0.12200000  0.48630000  1
  O  O675  1  0.79140000  0.62200000  0.01370000  1
  O  O676  1  0.80280000  0.00980000  0.49240000  1
  O  O677  1  0.80280000  0.50980000  0.00760000  1
  O  O678  1  0.80360000  0.46400000  0.61270000  1
  O  O679  1  0.80360000  0.96400000  0.88730000  1
  O  O680  1  0.81450000  0.44560000  0.27610000  1
  O  O681  1  0.81450000  0.94560000  0.22390000  1
  O  O682  1  0.81970000  0.12380000  0.84580000  1
  O  O683  1  0.81970000  0.62380000  0.65420000  1
  O  O684  1  0.82150000  0.49550000  0.52050000  1
  O  O685  1  0.82150000  0.99550000  0.97950000  1
  O  O686  1  0.82540000  0.11130000  0.18450000  1
  O  O687  1  0.82540000  0.61130000  0.31550000  1
  O  O688  1  0.82770000  0.13870000  0.36200000  1
  O  O689  1  0.82770000  0.36140000  0.59260000  1
  O  O690  1  0.82770000  0.63870000  0.13800000  1
  O  O691  1  0.82770000  0.86140000  0.90740000  1
  O  O692  1  0.83470000  0.38730000  0.40720000  1
  O  O693  1  0.83470000  0.88730000  0.09280000  1
  O  O694  1  0.83810000  0.47840000  0.09990000  1
  O  O695  1  0.83810000  0.97840000  0.40010000  1
  O  O696  1  0.83850000  0.11000000  0.97120000  1
  O  O697  1  0.83850000  0.61000000  0.52880000  1
  O  O698  1  0.85270000  0.28950000  0.94500000  1
  O  O699  1  0.85270000  0.78950000  0.55500000  1
  O  O700  1  0.85590000  0.44240000  0.18840000  1
  O  O701  1  0.85590000  0.94240000  0.31160000  1
  O  O702  1  0.85740000  0.03940000  0.26230000  1
  O  O703  1  0.85740000  0.53940000  0.23770000  1
  O  O704  1  0.85930000  0.38290000  0.50470000  1
  O  O705  1  0.85930000  0.88290000  0.99530000  1
  O  O706  1  0.86020000  0.20140000  0.43730000  1
  O  O707  1  0.86020000  0.70140000  0.06270000  1
  O  O708  1  0.86470000  0.02580000  0.81740000  1
  O  O709  1  0.86470000  0.52580000  0.68260000  1
  O  O710  1  0.87890000  0.38440000  0.06860000  1
  O  O711  1  0.87890000  0.88440000  0.43140000  1
  O  O712  1  0.88490000  0.08670000  0.42840000  1
  O  O713  1  0.88490000  0.58670000  0.07160000  1
  O  O714  1  0.88670000  0.41660000  0.66210000  1
  O  O715  1  0.88670000  0.91660000  0.83790000  1
  O  O716  1  0.88920000  0.05820000  0.89840000  1
  O  O717  1  0.88920000  0.55820000  0.60160000  1
  O  O718  1  0.89230000  0.44400000  0.36270000  1
  O  O719  1  0.89230000  0.94400000  0.13730000  1
  O  O720  1  0.90460000  0.23610000  0.59320000  1
  O  O721  1  0.90460000  0.73610000  0.90680000  1
  O  O722  1  0.90810000  0.05730000  0.34500000  1
  O  O723  1  0.90810000  0.55730000  0.15500000  1
  O  O724  1  0.91190000  0.44860000  0.57580000  1
  O  O725  1  0.91190000  0.94860000  0.92420000  1
  O  O726  1  0.91580000  0.34410000  0.14980000  1
  O  O727  1  0.91580000  0.84410000  0.35020000  1
  O  O728  1  0.91980000  0.26880000  0.52230000  1
  O  O729  1  0.91980000  0.76880000  0.97770000  1
  O  O730  1  0.92580000  0.48780000  0.04010000  1
  O  O731  1  0.92580000  0.98780000  0.45990000  1
  O  O732  1  0.95050000  0.45240000  0.12660000  1
  O  O733  1  0.95050000  0.95240000  0.37340000  1
  O  O734  1  0.95790000  0.44620000  0.27160000  1
  O  O735  1  0.95790000  0.94620000  0.22840000  1
  O  O736  1  0.95950000  0.12410000  0.18360000  1
  O  O737  1  0.95950000  0.62410000  0.31640000  1
  O  O738  1  0.97220000  0.30740000  0.70350000  1
  O  O739  1  0.97220000  0.80740000  0.79650000  1
  O  O740  1  0.98180000  0.08580000  0.71360000  1
  O  O741  1  0.98180000  0.58580000  0.78640000  1
  O  O742  1  0.98380000  0.49330000  0.64520000  1
  O  O743  1  0.98380000  0.99330000  0.85480000  1
