# generated using pymatgen
data_Al2P3H2CO14
_symmetry_space_group_name_H-M   'P 1'
_cell_length_a   8.61100000
_cell_length_b   9.09600000
_cell_length_c   11.37100000
_cell_angle_alpha   104.81100000
_cell_angle_beta   111.36800000
_cell_angle_gamma   94.24800000
_symmetry_Int_Tables_number   1
_chemical_formula_structural   Al2P3H2CO14
_chemical_formula_sum   'Al4 P6 H4 C2 O28'
_cell_volume   787.90843544
_cell_formula_units_Z   2
loop_
 _symmetry_equiv_pos_site_id
 _symmetry_equiv_pos_as_xyz
  1  'x, y, z'
loop_
 _atom_site_type_symbol
 _atom_site_label
 _atom_site_symmetry_multiplicity
 _atom_site_fract_x
 _atom_site_fract_y
 _atom_site_fract_z
 _atom_site_occupancy
  Al  Al0  1  0.04841000  0.32627000  0.35600000  1
  Al  Al1  1  0.17332000  0.36380000  0.89655000  1
  Al  Al2  1  0.82668000  0.63620000  0.10345000  1
  Al  Al3  1  0.95159000  0.67373000  0.64400000  1
  P  P4  1  0.14070000  0.00776000  0.79024000  1
  P  P5  1  0.17090000  0.48318000  0.18037000  1
  P  P6  1  0.22918000  0.46388000  0.66575000  1
  P  P7  1  0.77082000  0.53612000  0.33425000  1
  P  P8  1  0.82910000  0.51682000  0.81963000  1
  P  P9  1  0.85930000  0.99224000  0.20976000  1
  H  H10  1  0.17700000  0.96200000  0.62900000  1
  H  H11  1  0.40300000  0.58100000  0.26500000  1
  H  H12  1  0.59700000  0.41900000  0.73500000  1
  H  H13  1  0.82300000  0.03800000  0.37100000  1
  C  C14  1  0.47370000  0.57810000  0.00920000  1
  C  C15  1  0.52630000  0.42190000  0.99080000  1
  O  O16  1  0.01290000  0.12440000  0.29210000  1
  O  O17  1  0.02610000  0.56670000  0.13780000  1
  O  O18  1  0.07660000  0.15400000  0.83440000  1
  O  O19  1  0.13950000  0.60440000  0.66880000  1
  O  O20  1  0.15530000  0.39560000  0.27420000  1
  O  O21  1  0.16790000  0.35720000  0.73020000  1
  O  O22  1  0.17950000  0.36930000  0.52060000  1
  O  O23  1  0.19040000  0.36840000  0.06570000  1
  O  O24  1  0.22500000  0.03350000  0.69390000  1
  O  O25  1  0.26720000  0.96690000  0.90100000  1
  O  O26  1  0.31620000  0.57590000  0.97400000  1
  O  O27  1  0.33250000  0.61200000  0.25760000  1
  O  O28  1  0.40880000  0.30680000  0.94270000  1
  O  O29  1  0.41800000  0.52250000  0.73380000  1
  O  O30  1  0.58200000  0.47750000  0.26620000  1
  O  O31  1  0.59120000  0.69320000  0.05730000  1
  O  O32  1  0.66750000  0.38800000  0.74240000  1
  O  O33  1  0.68380000  0.42410000  0.02600000  1
  O  O34  1  0.73280000  0.03310000  0.09900000  1
  O  O35  1  0.77500000  0.96650000  0.30610000  1
  O  O36  1  0.80960000  0.63160000  0.93430000  1
  O  O37  1  0.82050000  0.63070000  0.47940000  1
  O  O38  1  0.83210000  0.64280000  0.26980000  1
  O  O39  1  0.84470000  0.60440000  0.72580000  1
  O  O40  1  0.86050000  0.39560000  0.33120000  1
  O  O41  1  0.92340000  0.84600000  0.16560000  1
  O  O42  1  0.97390000  0.43330000  0.86220000  1
  O  O43  1  0.98710000  0.87560000  0.70790000  1
