# generated using pymatgen
data_GdH2C7(NO3)2
_symmetry_space_group_name_H-M   'P 1'
_cell_length_a   10.93400000
_cell_length_b   11.79270000
_cell_length_c   19.21520000
_cell_angle_alpha   90.00000000
_cell_angle_beta   90.00000000
_cell_angle_gamma   90.00000000
_symmetry_Int_Tables_number   1
_chemical_formula_structural   GdH2C7(NO3)2
_chemical_formula_sum   'Gd8 H16 C56 N16 O48'
_cell_volume   2477.63443956
_cell_formula_units_Z   8
loop_
 _symmetry_equiv_pos_site_id
 _symmetry_equiv_pos_as_xyz
  1  'x, y, z'
loop_
 _atom_site_type_symbol
 _atom_site_label
 _atom_site_symmetry_multiplicity
 _atom_site_fract_x
 _atom_site_fract_y
 _atom_site_fract_z
 _atom_site_occupancy
  Gd  Gd0  1  0.11914000  0.97056000  0.71137000  1
  Gd  Gd1  1  0.13790000  0.34276000  0.42584000  1
  Gd  Gd2  1  0.36210000  0.84276000  0.42584000  1
  Gd  Gd3  1  0.38086000  0.47056000  0.71137000  1
  Gd  Gd4  1  0.61914000  0.52944000  0.21137000  1
  Gd  Gd5  1  0.63790000  0.15724000  0.92584000  1
  Gd  Gd6  1  0.86210000  0.65724000  0.92584000  1
  Gd  Gd7  1  0.88086000  0.02944000  0.21137000  1
  H  H8  1  0.00680000  0.76060000  0.32570000  1
  H  H9  1  0.12940000  0.60140000  0.81130000  1
  H  H10  1  0.14580000  0.99690000  0.32160000  1
  H  H11  1  0.22930000  0.24930000  0.15630000  1
  H  H12  1  0.27070000  0.74930000  0.15630000  1
  H  H13  1  0.35420000  0.49690000  0.32160000  1
  H  H14  1  0.37060000  0.10140000  0.81130000  1
  H  H15  1  0.49320000  0.26060000  0.32570000  1
  H  H16  1  0.50680000  0.73940000  0.82570000  1
  H  H17  1  0.62940000  0.89860000  0.31130000  1
  H  H18  1  0.64580000  0.50310000  0.82160000  1
  H  H19  1  0.72930000  0.25070000  0.65630000  1
  H  H20  1  0.77070000  0.75070000  0.65630000  1
  H  H21  1  0.85420000  0.00310000  0.82160000  1
  H  H22  1  0.87060000  0.39860000  0.31130000  1
  H  H23  1  0.99320000  0.23940000  0.82570000  1
  C  C24  1  0.02100000  0.31380000  0.82240000  1
  C  C25  1  0.03990000  0.59730000  0.35280000  1
  C  C26  1  0.05240000  0.84110000  0.12230000  1
  C  C27  1  0.08610000  0.23280000  0.26960000  1
  C  C28  1  0.10160000  0.52710000  0.81420000  1
  C  C29  1  0.12660000  0.34170000  0.78640000  1
  C  C30  1  0.13500000  0.85930000  0.18470000  1
  C  C31  1  0.16040000  0.61640000  0.39100000  1
  C  C32  1  0.16850000  0.94300000  0.28880000  1
  C  C33  1  0.17740000  0.87930000  0.55500000  1
  C  C34  1  0.19500000  0.30980000  0.25210000  1
  C  C35  1  0.20050000  0.43080000  0.58040000  1
  C  C36  1  0.20350000  0.25030000  0.75090000  1
  C  C37  1  0.24290000  0.79690000  0.19140000  1
  C  C38  1  0.25710000  0.29690000  0.19140000  1
  C  C39  1  0.29650000  0.75030000  0.75090000  1
  C  C40  1  0.29950000  0.93080000  0.58040000  1
  C  C41  1  0.30500000  0.80980000  0.25210000  1
  C  C42  1  0.32260000  0.37930000  0.55500000  1
  C  C43  1  0.33150000  0.44300000  0.28880000  1
  C  C44  1  0.33960000  0.11640000  0.39100000  1
  C  C45  1  0.36500000  0.35930000  0.18470000  1
  C  C46  1  0.37340000  0.84170000  0.78640000  1
  C  C47  1  0.39840000  0.02710000  0.81420000  1
  C  C48  1  0.41390000  0.73280000  0.26960000  1
  C  C49  1  0.44760000  0.34110000  0.12230000  1
  C  C50  1  0.46010000  0.09730000  0.35280000  1
  C  C51  1  0.47900000  0.81380000  0.82240000  1
  C  C52  1  0.52100000  0.18620000  0.32240000  1
  C  C53  1  0.53990000  0.90270000  0.85280000  1
  C  C54  1  0.55240000  0.65890000  0.62230000  1
  C  C55  1  0.58610000  0.26720000  0.76960000  1
  C  C56  1  0.60160000  0.97290000  0.31420000  1
  C  C57  1  0.62660000  0.15830000  0.28640000  1
  C  C58  1  0.63500000  0.64070000  0.68470000  1
  C  C59  1  0.66040000  0.88360000  0.89100000  1
  C  C60  1  0.66850000  0.55700000  0.78880000  1
  C  C61  1  0.67740000  0.62070000  0.05500000  1
  C  C62  1  0.69500000  0.19020000  0.75210000  1
  C  C63  1  0.70050000  0.06920000  0.08040000  1
  C  C64  1  0.70350000  0.24970000  0.25090000  1
  C  C65  1  0.74290000  0.70310000  0.69140000  1
  C  C66  1  0.75710000  0.20310000  0.69140000  1
  C  C67  1  0.79650000  0.74970000  0.25090000  1
  C  C68  1  0.79950000  0.56920000  0.08040000  1
  C  C69  1  0.80500000  0.69020000  0.75210000  1
  C  C70  1  0.82260000  0.12070000  0.05500000  1
  C  C71  1  0.83150000  0.05700000  0.78880000  1
  C  C72  1  0.83960000  0.38360000  0.89100000  1
  C  C73  1  0.86500000  0.14070000  0.68470000  1
  C  C74  1  0.87340000  0.65830000  0.28640000  1
  C  C75  1  0.89840000  0.47290000  0.31420000  1
  C  C76  1  0.91390000  0.76720000  0.76960000  1
  C  C77  1  0.94760000  0.15890000  0.62230000  1
  C  C78  1  0.96010000  0.40270000  0.85280000  1
  C  C79  1  0.97900000  0.68620000  0.32240000  1
  N  N80  1  0.00080000  0.49080000  0.35120000  1
  N  N81  1  0.09710000  0.93180000  0.23310000  1
  N  N82  1  0.16690000  0.44860000  0.78130000  1
  N  N83  1  0.23020000  0.38350000  0.30160000  1
  N  N84  1  0.26980000  0.88350000  0.30160000  1
  N  N85  1  0.33310000  0.94860000  0.78130000  1
  N  N86  1  0.40290000  0.43180000  0.23310000  1
  N  N87  1  0.49920000  0.99080000  0.35120000  1
  N  N88  1  0.50080000  0.00920000  0.85120000  1
  N  N89  1  0.59710000  0.56820000  0.73310000  1
  N  N90  1  0.66690000  0.05140000  0.28130000  1
  N  N91  1  0.73020000  0.11650000  0.80160000  1
  N  N92  1  0.76980000  0.61650000  0.80160000  1
  N  N93  1  0.83310000  0.55140000  0.28130000  1
  N  N94  1  0.90290000  0.06820000  0.73310000  1
  N  N95  1  0.99920000  0.50920000  0.85120000  1
  O  O96  1  0.04590000  0.10150000  0.62190000  1
  O  O97  1  0.04620000  0.24050000  0.33140000  1
  O  O98  1  0.04930000  0.16730000  0.22370000  1
  O  O99  1  0.08670000  0.77200000  0.07930000  1
  O  O100  1  0.09090000  0.87510000  0.60030000  1
  O  O101  1  0.11070000  0.41750000  0.54230000  1
  O  O102  1  0.16580000  0.15120000  0.75490000  1
  O  O103  1  0.17310000  0.84640000  0.49350000  1
  O  O104  1  0.19980000  0.78240000  0.72200000  1
  O  O105  1  0.20460000  0.53540000  0.42540000  1
  O  O106  1  0.20470000  0.48490000  0.63720000  1
  O  O107  1  0.20850000  0.71230000  0.38330000  1
  O  O108  1  0.29150000  0.21230000  0.38330000  1
  O  O109  1  0.29530000  0.98490000  0.63720000  1
  O  O110  1  0.29540000  0.03540000  0.42540000  1
  O  O111  1  0.30020000  0.28240000  0.72200000  1
  O  O112  1  0.32690000  0.34640000  0.49350000  1
  O  O113  1  0.33420000  0.65120000  0.75490000  1
  O  O114  1  0.38930000  0.91750000  0.54230000  1
  O  O115  1  0.40910000  0.37510000  0.60030000  1
  O  O116  1  0.41330000  0.27200000  0.07930000  1
  O  O117  1  0.45070000  0.66730000  0.22370000  1
  O  O118  1  0.45380000  0.74050000  0.33140000  1
  O  O119  1  0.45410000  0.60150000  0.62190000  1
  O  O120  1  0.54590000  0.39850000  0.12190000  1
  O  O121  1  0.54620000  0.25950000  0.83140000  1
  O  O122  1  0.54930000  0.33270000  0.72370000  1
  O  O123  1  0.58670000  0.72800000  0.57930000  1
  O  O124  1  0.59090000  0.62490000  0.10030000  1
  O  O125  1  0.61070000  0.08250000  0.04230000  1
  O  O126  1  0.66580000  0.34880000  0.25490000  1
  O  O127  1  0.67310000  0.65360000  0.99350000  1
  O  O128  1  0.69980000  0.71760000  0.22200000  1
  O  O129  1  0.70460000  0.96460000  0.92540000  1
  O  O130  1  0.70470000  0.01510000  0.13720000  1
  O  O131  1  0.70850000  0.78770000  0.88330000  1
  O  O132  1  0.79150000  0.28770000  0.88330000  1
  O  O133  1  0.79530000  0.51510000  0.13720000  1
  O  O134  1  0.79540000  0.46460000  0.92540000  1
  O  O135  1  0.80020000  0.21760000  0.22200000  1
  O  O136  1  0.82690000  0.15360000  0.99350000  1
  O  O137  1  0.83420000  0.84880000  0.25490000  1
  O  O138  1  0.88930000  0.58250000  0.04230000  1
  O  O139  1  0.90910000  0.12490000  0.10030000  1
  O  O140  1  0.91330000  0.22800000  0.57930000  1
  O  O141  1  0.95070000  0.83270000  0.72370000  1
  O  O142  1  0.95380000  0.75950000  0.83140000  1
  O  O143  1  0.95410000  0.89850000  0.12190000  1
