# generated using pymatgen
data_Zn2H16C23I2(N3O2)2
_symmetry_space_group_name_H-M   'P 1'
_cell_length_a   7.66200000
_cell_length_b   9.90560000
_cell_length_c   36.85700000
_cell_angle_alpha   96.24500000
_cell_angle_beta   90.00000000
_cell_angle_gamma   90.00000000
_symmetry_Int_Tables_number   1
_chemical_formula_structural   Zn2H16C23I2(N3O2)2
_chemical_formula_sum   'Zn8 H64 C92 I8 N24 O16'
_cell_volume   2780.72514915
_cell_formula_units_Z   4
loop_
 _symmetry_equiv_pos_site_id
 _symmetry_equiv_pos_as_xyz
  1  'x, y, z'
loop_
 _atom_site_type_symbol
 _atom_site_label
 _atom_site_symmetry_multiplicity
 _atom_site_fract_x
 _atom_site_fract_y
 _atom_site_fract_z
 _atom_site_occupancy
  Zn  Zn0  1  0.04246000  0.16822000  0.52738000  1
  Zn  Zn1  1  0.16216000  0.27214000  0.16814000  1
  Zn  Zn2  1  0.33784000  0.27214000  0.66814000  1
  Zn  Zn3  1  0.45754000  0.16822000  0.02738000  1
  Zn  Zn4  1  0.54246000  0.83178000  0.97262000  1
  Zn  Zn5  1  0.66216000  0.72786000  0.33186000  1
  Zn  Zn6  1  0.83784000  0.72786000  0.83186000  1
  Zn  Zn7  1  0.95754000  0.83178000  0.47262000  1
  H  H8  1  0.03310000  0.82740000  0.90800000  1
  H  H9  1  0.03810000  0.37810000  0.60230000  1
  H  H10  1  0.04700000  0.98970000  0.81570000  1
  H  H11  1  0.08140000  0.51100000  0.33800000  1
  H  H12  1  0.08750000  0.49050000  0.93410000  1
  H  H13  1  0.13080000  0.55390000  0.78230000  1
  H  H14  1  0.13620000  0.53400000  0.71570000  1
  H  H15  1  0.18020000  0.69170000  0.97390000  1
  H  H16  1  0.18510000  0.94330000  0.61540000  1
  H  H17  1  0.19660000  0.64510000  0.53300000  1
  H  H18  1  0.20120000  0.12210000  0.30400000  1
  H  H19  1  0.20280000  0.27430000  0.90780000  1
  H  H20  1  0.21240000  0.03120000  0.91780000  1
  H  H21  1  0.22110000  0.79510000  0.15500000  1
  H  H22  1  0.22140000  0.49510000  0.07260000  1
  H  H23  1  0.24960000  0.22570000  0.74820000  1
  H  H24  1  0.25040000  0.22570000  0.24820000  1
  H  H25  1  0.27860000  0.49510000  0.57260000  1
  H  H26  1  0.27890000  0.79510000  0.65500000  1
  H  H27  1  0.28760000  0.03120000  0.41780000  1
  H  H28  1  0.29720000  0.27430000  0.40780000  1
  H  H29  1  0.29880000  0.12210000  0.80400000  1
  H  H30  1  0.30340000  0.64510000  0.03300000  1
  H  H31  1  0.31490000  0.94330000  0.11540000  1
  H  H32  1  0.31980000  0.69170000  0.47390000  1
  H  H33  1  0.36380000  0.53400000  0.21570000  1
  H  H34  1  0.36920000  0.55390000  0.28230000  1
  H  H35  1  0.41250000  0.49050000  0.43410000  1
  H  H36  1  0.41860000  0.51100000  0.83800000  1
  H  H37  1  0.45300000  0.98970000  0.31570000  1
  H  H38  1  0.46190000  0.37810000  0.10230000  1
  H  H39  1  0.46690000  0.82740000  0.40800000  1
  H  H40  1  0.53310000  0.17260000  0.59200000  1
  H  H41  1  0.53810000  0.62190000  0.89770000  1
  H  H42  1  0.54700000  0.01030000  0.68430000  1
  H  H43  1  0.58140000  0.48900000  0.16200000  1
  H  H44  1  0.58750000  0.50950000  0.56590000  1
  H  H45  1  0.63080000  0.44610000  0.71770000  1
  H  H46  1  0.63620000  0.46600000  0.78430000  1
  H  H47  1  0.68020000  0.30830000  0.52610000  1
  H  H48  1  0.68510000  0.05670000  0.88460000  1
  H  H49  1  0.69660000  0.35490000  0.96700000  1
  H  H50  1  0.70120000  0.87790000  0.19600000  1
  H  H51  1  0.70280000  0.72570000  0.59220000  1
  H  H52  1  0.71240000  0.96880000  0.58220000  1
  H  H53  1  0.72110000  0.20490000  0.34500000  1
  H  H54  1  0.72140000  0.50490000  0.42740000  1
  H  H55  1  0.74960000  0.77430000  0.75180000  1
  H  H56  1  0.75040000  0.77430000  0.25180000  1
  H  H57  1  0.77860000  0.50490000  0.92740000  1
  H  H58  1  0.77890000  0.20490000  0.84500000  1
  H  H59  1  0.78760000  0.96880000  0.08220000  1
  H  H60  1  0.79720000  0.72570000  0.09220000  1
  H  H61  1  0.79880000  0.87790000  0.69600000  1
  H  H62  1  0.80340000  0.35490000  0.46700000  1
  H  H63  1  0.81490000  0.05670000  0.38460000  1
  H  H64  1  0.81980000  0.30830000  0.02610000  1
  H  H65  1  0.86380000  0.46600000  0.28430000  1
  H  H66  1  0.86920000  0.44610000  0.21770000  1
  H  H67  1  0.91250000  0.50950000  0.06590000  1
  H  H68  1  0.91860000  0.48900000  0.66200000  1
  H  H69  1  0.95300000  0.01030000  0.18430000  1
  H  H70  1  0.96190000  0.62190000  0.39770000  1
  H  H71  1  0.96690000  0.17260000  0.09200000  1
  C  C72  1  0.05400000  0.59640000  0.76766000  1
  C  C73  1  0.05840000  0.58490000  0.73099000  1
  C  C74  1  0.05870000  0.88540000  0.89044000  1
  C  C75  1  0.06180000  0.61490000  0.41171000  1
  C  C76  1  0.06550000  0.97380000  0.83980000  1
  C  C77  1  0.12530000  0.42730000  0.34281000  1
  C  C78  1  0.13050000  0.90930000  0.54462000  1
  C  C79  1  0.13070000  0.31870000  0.31578000  1
  C  C80  1  0.15410000  0.28300000  0.24867000  1
  C  C81  1  0.15720000  0.99790000  0.89620000  1
  C  C82  1  0.15940000  0.53020000  0.14425000  1
  C  C83  1  0.18590000  0.40870000  0.37665000  1
  C  C84  1  0.18750000  0.81070000  0.56994000  1
  C  C85  1  0.18800000  0.54140000  0.93168000  1
  C  C86  1  0.19820000  0.19450000  0.32231000  1
  C  C87  1  0.20780000  0.85330000  0.60675000  1
  C  C88  1  0.21180000  0.62880000  0.11825000  1
  C  C89  1  0.21300000  0.67520000  0.55755000  1
  C  C90  1  0.23790000  0.58600000  0.08116000  1
  C  C91  1  0.23870000  0.18080000  0.85677000  1
  C  C92  1  0.23900000  0.76440000  0.13054000  1
  C  C93  1  0.24090000  0.65230000  0.95356000  1
  C  C94  1  0.24420000  0.28550000  0.88458000  1
  C  C95  1  0.25580000  0.28550000  0.38458000  1
  C  C96  1  0.25910000  0.65230000  0.45356000  1
  C  C97  1  0.26100000  0.76440000  0.63054000  1
  C  C98  1  0.26130000  0.18080000  0.35677000  1
  C  C99  1  0.26210000  0.58600000  0.58116000  1
  C  C100  1  0.28700000  0.67520000  0.05755000  1
  C  C101  1  0.28820000  0.62880000  0.61825000  1
  C  C102  1  0.29220000  0.85330000  0.10675000  1
  C  C103  1  0.30180000  0.19450000  0.82231000  1
  C  C104  1  0.31200000  0.54140000  0.43168000  1
  C  C105  1  0.31250000  0.81070000  0.06994000  1
  C  C106  1  0.31410000  0.40870000  0.87665000  1
  C  C107  1  0.34060000  0.53020000  0.64425000  1
  C  C108  1  0.34280000  0.99790000  0.39620000  1
  C  C109  1  0.34590000  0.28300000  0.74867000  1
  C  C110  1  0.36930000  0.31870000  0.81578000  1
  C  C111  1  0.36950000  0.90930000  0.04462000  1
  C  C112  1  0.37470000  0.42730000  0.84281000  1
  C  C113  1  0.43450000  0.97380000  0.33980000  1
  C  C114  1  0.43820000  0.61490000  0.91171000  1
  C  C115  1  0.44130000  0.88540000  0.39044000  1
  C  C116  1  0.44160000  0.58490000  0.23099000  1
  C  C117  1  0.44600000  0.59640000  0.26766000  1
  C  C118  1  0.55400000  0.40360000  0.73234000  1
  C  C119  1  0.55840000  0.41510000  0.76901000  1
  C  C120  1  0.55870000  0.11460000  0.60956000  1
  C  C121  1  0.56180000  0.38510000  0.08829000  1
  C  C122  1  0.56550000  0.02620000  0.66020000  1
  C  C123  1  0.62530000  0.57270000  0.15719000  1
  C  C124  1  0.63050000  0.09070000  0.95538000  1
  C  C125  1  0.63070000  0.68130000  0.18422000  1
  C  C126  1  0.65410000  0.71700000  0.25133000  1
  C  C127  1  0.65720000  0.00210000  0.60380000  1
  C  C128  1  0.65940000  0.46980000  0.35575000  1
  C  C129  1  0.68590000  0.59130000  0.12335000  1
  C  C130  1  0.68750000  0.18930000  0.93006000  1
  C  C131  1  0.68800000  0.45860000  0.56832000  1
  C  C132  1  0.69820000  0.80550000  0.17769000  1
  C  C133  1  0.70780000  0.14670000  0.89325000  1
  C  C134  1  0.71180000  0.37120000  0.38175000  1
  C  C135  1  0.71300000  0.32480000  0.94245000  1
  C  C136  1  0.73790000  0.41400000  0.41884000  1
  C  C137  1  0.73870000  0.81920000  0.64323000  1
  C  C138  1  0.73900000  0.23560000  0.36946000  1
  C  C139  1  0.74090000  0.34770000  0.54644000  1
  C  C140  1  0.74420000  0.71450000  0.61542000  1
  C  C141  1  0.75580000  0.71450000  0.11542000  1
  C  C142  1  0.75910000  0.34770000  0.04644000  1
  C  C143  1  0.76100000  0.23560000  0.86946000  1
  C  C144  1  0.76130000  0.81920000  0.14323000  1
  C  C145  1  0.76210000  0.41400000  0.91884000  1
  C  C146  1  0.78700000  0.32480000  0.44245000  1
  C  C147  1  0.78820000  0.37120000  0.88175000  1
  C  C148  1  0.79220000  0.14670000  0.39325000  1
  C  C149  1  0.80180000  0.80550000  0.67769000  1
  C  C150  1  0.81200000  0.45860000  0.06832000  1
  C  C151  1  0.81250000  0.18930000  0.43006000  1
  C  C152  1  0.81410000  0.59130000  0.62335000  1
  C  C153  1  0.84060000  0.46980000  0.85575000  1
  C  C154  1  0.84280000  0.00210000  0.10380000  1
  C  C155  1  0.84590000  0.71700000  0.75133000  1
  C  C156  1  0.86930000  0.68130000  0.68422000  1
  C  C157  1  0.86950000  0.09070000  0.45538000  1
  C  C158  1  0.87470000  0.57270000  0.65719000  1
  C  C159  1  0.93450000  0.02620000  0.16020000  1
  C  C160  1  0.93820000  0.38510000  0.58829000  1
  C  C161  1  0.94130000  0.11460000  0.10956000  1
  C  C162  1  0.94160000  0.41510000  0.26901000  1
  C  C163  1  0.94600000  0.40360000  0.23234000  1
  I  I164  1  0.02051000  0.18373000  0.67493000  1
  I  I165  1  0.19335000  0.25890000  0.99723000  1
  I  I166  1  0.30665000  0.25890000  0.49723000  1
  I  I167  1  0.47949000  0.18373000  0.17493000  1
  I  I168  1  0.52051000  0.81627000  0.82507000  1
  I  I169  1  0.69335000  0.74110000  0.50277000  1
  I  I170  1  0.80665000  0.74110000  0.00277000  1
  I  I171  1  0.97949000  0.81627000  0.32507000  1
  N  N172  1  0.00100000  0.86830000  0.85478000  1
  N  N173  1  0.07510000  0.33660000  0.27909000  1
  N  N174  1  0.08030000  0.32020000  0.21980000  1
  N  N175  1  0.10340000  0.69820000  0.44152000  1
  N  N176  1  0.15960000  0.05360000  0.86357000  1
  N  N177  1  0.18640000  0.51950000  0.40507000  1
  N  N178  1  0.31360000  0.51950000  0.90507000  1
  N  N179  1  0.34040000  0.05360000  0.36357000  1
  N  N180  1  0.39660000  0.69820000  0.94152000  1
  N  N181  1  0.41970000  0.32020000  0.71980000  1
  N  N182  1  0.42490000  0.33660000  0.77909000  1
  N  N183  1  0.49900000  0.86830000  0.35478000  1
  N  N184  1  0.50100000  0.13170000  0.64522000  1
  N  N185  1  0.57510000  0.66340000  0.22091000  1
  N  N186  1  0.58030000  0.67980000  0.28020000  1
  N  N187  1  0.60340000  0.30180000  0.05848000  1
  N  N188  1  0.65960000  0.94640000  0.63643000  1
  N  N189  1  0.68640000  0.48050000  0.09493000  1
  N  N190  1  0.81360000  0.48050000  0.59493000  1
  N  N191  1  0.84040000  0.94640000  0.13643000  1
  N  N192  1  0.89660000  0.30180000  0.55848000  1
  N  N193  1  0.91970000  0.67980000  0.78020000  1
  N  N194  1  0.92490000  0.66340000  0.72091000  1
  N  N195  1  0.99900000  0.13170000  0.14522000  1
  O  O196  1  0.08270000  0.02630000  0.55844000  1
  O  O197  1  0.11120000  0.57090000  0.17495000  1
  O  O198  1  0.13600000  0.87570000  0.51092000  1
  O  O199  1  0.17740000  0.40370000  0.13280000  1
  O  O200  1  0.32260000  0.40370000  0.63280000  1
  O  O201  1  0.36400000  0.87570000  0.01092000  1
  O  O202  1  0.38880000  0.57090000  0.67495000  1
  O  O203  1  0.41730000  0.02630000  0.05844000  1
  O  O204  1  0.58270000  0.97370000  0.94156000  1
  O  O205  1  0.61120000  0.42910000  0.32505000  1
  O  O206  1  0.63600000  0.12430000  0.98908000  1
  O  O207  1  0.67740000  0.59630000  0.36720000  1
  O  O208  1  0.82260000  0.59630000  0.86720000  1
  O  O209  1  0.86400000  0.12430000  0.48908000  1
  O  O210  1  0.88880000  0.42910000  0.82505000  1
  O  O211  1  0.91730000  0.97370000  0.44156000  1
