# generated using pymatgen
data_CuH5C12N3O4
_symmetry_space_group_name_H-M   'P 1'
_cell_length_a   30.92600000
_cell_length_b   30.92600000
_cell_length_c   31.41298681
_cell_angle_alpha   119.48845747
_cell_angle_beta   119.48840050
_cell_angle_gamma   90.00010000
_symmetry_Int_Tables_number   1
_chemical_formula_structural   CuH5C12N3O4
_chemical_formula_sum   'Cu24 H120 C288 N72 O96'
_cell_volume   21568.59961692
_cell_formula_units_Z   24
loop_
 _symmetry_equiv_pos_site_id
 _symmetry_equiv_pos_as_xyz
  1  'x, y, z'
loop_
 _atom_site_type_symbol
 _atom_site_label
 _atom_site_symmetry_multiplicity
 _atom_site_fract_x
 _atom_site_fract_y
 _atom_site_fract_z
 _atom_site_occupancy
  Cu  Cu0  1  0.13215000  0.19324000  0.66215000  1
  Cu  Cu1  1  0.16541000  0.55754000  1.00000000  1
  Cu  Cu2  1  0.19324000  0.53000000  0.66216000  1
  Cu  Cu3  1  0.22425000  0.27001000  0.74393000  1
  Cu  Cu4  1  0.25058000  0.54306000  0.00000000  1
  Cu  Cu5  1  0.27001000  0.51968000  0.74393000  1
  Cu  Cu6  1  0.44246000  0.16541000  1.00000000  1
  Cu  Cu7  1  0.45694000  0.25058000  0.00000000  1
  Cu  Cu8  1  0.46891000  0.13215000  0.66215000  1
  Cu  Cu9  1  0.46999000  0.53108000  0.33784000  1
  Cu  Cu10  1  0.47391000  0.22424000  0.74392000  1
  Cu  Cu11  1  0.48032000  0.52608000  0.25608000  1
  Cu  Cu12  1  0.51968000  0.47392000  0.74392000  1
  Cu  Cu13  1  0.52608000  0.77575000  0.25607000  1
  Cu  Cu14  1  0.53001000  0.46892000  0.66216000  1
  Cu  Cu15  1  0.53109000  0.86785000  0.33785000  1
  Cu  Cu16  1  0.54306000  0.74942000  0.00000000  1
  Cu  Cu17  1  0.55754000  0.83459000  1.00000000  1
  Cu  Cu18  1  0.72999000  0.48032000  0.25607000  1
  Cu  Cu19  1  0.74942000  0.45694000  0.00000000  1
  Cu  Cu20  1  0.77575000  0.72999000  0.25607000  1
  Cu  Cu21  1  0.80676000  0.47000000  0.33784000  1
  Cu  Cu22  1  0.83459000  0.44246000  1.00000000  1
  Cu  Cu23  1  0.86785000  0.80676000  0.33785000  1
  H  H24  1  0.00360000  0.56660000  0.80080000  1
  H  H25  1  0.00590000  0.80110000  0.56500000  1
  H  H26  1  0.01800000  0.78320000  0.26200000  1
  H  H27  1  0.05570000  0.25500000  0.75280000  1
  H  H28  1  0.06070000  0.24220000  0.54080000  1
  H  H29  1  0.06840000  0.39270000  0.88440000  1
  H  H30  1  0.07040000  0.87600000  0.66260000  1
  H  H31  1  0.07370000  0.42590000  0.20120000  1
  H  H32  1  0.08210000  0.86230000  0.31020000  1
  H  H33  1  0.08700000  0.37260000  0.54340000  1
  H  H34  1  0.09240000  0.58420000  0.86420000  1
  H  H35  1  0.10080000  0.57210000  0.73320000  1
  H  H36  1  0.12400000  0.40780000  0.33740000  1
  H  H37  1  0.12750000  0.77530000  0.20120000  1
  H  H38  1  0.13770000  0.77190000  0.68980000  1
  H  H39  1  0.16110000  0.10080000  0.73320000  1
  H  H40  1  0.17080000  0.08700000  0.54340000  1
  H  H41  1  0.18040000  0.38430000  0.85080000  1
  H  H42  1  0.18400000  0.50830000  0.11560000  1
  H  H43  1  0.19470000  0.36400000  0.67800000  1
  H  H44  1  0.19890000  0.44090000  0.43500000  1
  H  H45  1  0.20280000  0.76580000  0.19920000  1
  H  H46  1  0.21340000  0.92960000  0.33740000  1
  H  H47  1  0.21680000  0.75600000  0.73800000  1
  H  H48  1  0.21900000  0.55800000  0.85900000  1
  H  H49  1  0.22470000  0.92630000  0.79880000  1
  H  H50  1  0.22810000  0.44790000  0.31020000  1
  H  H51  1  0.22820000  0.72000000  0.13580000  1
  H  H52  1  0.23420000  0.00360000  0.80080000  1
  H  H53  1  0.23610000  0.99410000  0.43500000  1
  H  H54  1  0.24220000  0.48010000  0.54080000  1
  H  H55  1  0.24400000  0.47880000  0.26200000  1
  H  H56  1  0.25500000  0.69710000  0.75280000  1
  H  H57  1  0.28000000  0.09240000  0.86420000  1
  H  H58  1  0.29860000  0.06070000  0.54080000  1
  H  H59  1  0.30100000  0.21900000  0.85900000  1
  H  H60  1  0.30290000  0.50220000  0.24720000  1
  H  H61  1  0.31400000  0.19470000  0.67800000  1
  H  H62  1  0.32960000  0.53350000  0.14920000  1
  H  H63  1  0.36000000  0.69900000  0.14100000  1
  H  H64  1  0.36400000  0.48330000  0.67800000  1
  H  H65  1  0.36760000  0.83890000  0.26680000  1
  H  H66  1  0.37260000  0.45640000  0.54340000  1
  H  H67  1  0.38430000  0.67040000  0.85080000  1
  H  H68  1  0.39270000  0.81600000  0.88440000  1
  H  H69  1  0.40780000  0.21340000  0.33740000  1
  H  H70  1  0.41580000  0.22820000  0.13580000  1
  H  H71  1  0.42590000  0.12750000  0.20120000  1
  H  H72  1  0.42790000  0.36760000  0.26680000  1
  H  H73  1  0.43340000  0.20280000  0.19920000  1
  H  H74  1  0.44090000  0.23610000  0.43500000  1
  H  H75  1  0.44200000  0.36000000  0.14100000  1
  H  H76  1  0.44790000  0.08210000  0.31020000  1
  H  H77  1  0.45640000  0.17080000  0.54340000  1
  H  H78  1  0.46650000  0.18040000  0.85080000  1
  H  H79  1  0.47880000  0.01800000  0.26200000  1
  H  H80  1  0.48010000  0.29860000  0.54080000  1
  H  H81  1  0.48330000  0.31400000  0.67800000  1
  H  H82  1  0.49170000  0.06840000  0.88440000  1
  H  H83  1  0.49780000  0.05570000  0.75280000  1
  H  H84  1  0.50220000  0.94430000  0.24720000  1
  H  H85  1  0.50830000  0.93160000  0.11560000  1
  H  H86  1  0.51670000  0.68600000  0.32200000  1
  H  H87  1  0.51990000  0.70140000  0.45920000  1
  H  H88  1  0.52120000  0.98200000  0.73800000  1
  H  H89  1  0.53350000  0.81960000  0.14920000  1
  H  H90  1  0.54360000  0.82920000  0.45660000  1
  H  H91  1  0.55210000  0.91790000  0.68980000  1
  H  H92  1  0.55800000  0.64000000  0.85900000  1
  H  H93  1  0.55910000  0.76390000  0.56500000  1
  H  H94  1  0.56660000  0.79720000  0.80080000  1
  H  H95  1  0.57210000  0.63240000  0.73320000  1
  H  H96  1  0.57410000  0.87250000  0.79880000  1
  H  H97  1  0.58420000  0.77180000  0.86420000  1
  H  H98  1  0.59220000  0.78660000  0.66260000  1
  H  H99  1  0.60730000  0.18400000  0.11560000  1
  H  H100  1  0.61570000  0.32960000  0.14920000  1
  H  H101  1  0.62740000  0.54360000  0.45660000  1
  H  H102  1  0.63240000  0.16110000  0.73320000  1
  H  H103  1  0.63600000  0.51670000  0.32200000  1
  H  H104  1  0.64000000  0.30100000  0.85900000  1
  H  H105  1  0.67040000  0.46650000  0.85080000  1
  H  H106  1  0.68600000  0.80530000  0.32200000  1
  H  H107  1  0.69710000  0.49780000  0.75280000  1
  H  H108  1  0.69900000  0.78100000  0.14100000  1
  H  H109  1  0.70140000  0.93930000  0.45920000  1
  H  H110  1  0.72000000  0.90760000  0.13580000  1
  H  H111  1  0.74500000  0.30290000  0.24720000  1
  H  H112  1  0.75600000  0.52120000  0.73800000  1
  H  H113  1  0.75780000  0.51990000  0.45920000  1
  H  H114  1  0.76390000  0.00590000  0.56500000  1
  H  H115  1  0.76580000  0.99640000  0.19920000  1
  H  H116  1  0.77180000  0.28000000  0.86420000  1
  H  H117  1  0.77190000  0.55210000  0.68980000  1
  H  H118  1  0.77530000  0.07370000  0.20120000  1
  H  H119  1  0.78100000  0.44200000  0.14100000  1
  H  H120  1  0.78320000  0.24400000  0.26200000  1
  H  H121  1  0.78660000  0.07040000  0.66260000  1
  H  H122  1  0.79720000  0.23420000  0.80080000  1
  H  H123  1  0.80110000  0.55910000  0.56500000  1
  H  H124  1  0.80530000  0.63600000  0.32200000  1
  H  H125  1  0.81600000  0.49170000  0.88440000  1
  H  H126  1  0.81960000  0.61570000  0.14920000  1
  H  H127  1  0.82920000  0.91300000  0.45660000  1
  H  H128  1  0.83890000  0.89920000  0.26680000  1
  H  H129  1  0.86230000  0.22810000  0.31020000  1
  H  H130  1  0.87250000  0.22470000  0.79880000  1
  H  H131  1  0.87600000  0.59220000  0.66260000  1
  H  H132  1  0.89920000  0.42790000  0.26680000  1
  H  H133  1  0.90760000  0.41580000  0.13580000  1
  H  H134  1  0.91300000  0.62740000  0.45660000  1
  H  H135  1  0.91790000  0.13770000  0.68980000  1
  H  H136  1  0.92630000  0.57410000  0.79880000  1
  H  H137  1  0.92960000  0.12400000  0.33740000  1
  H  H138  1  0.93160000  0.60730000  0.11560000  1
  H  H139  1  0.93930000  0.75780000  0.45920000  1
  H  H140  1  0.94430000  0.74500000  0.24720000  1
  H  H141  1  0.98200000  0.21680000  0.73800000  1
  H  H142  1  0.99410000  0.19890000  0.43500000  1
  H  H143  1  0.99640000  0.43340000  0.19920000  1
  C  C144  1  0.00382000  0.58232000  0.78144000  1
  C  C145  1  0.00945000  0.77325000  0.57010000  1
  C  C146  1  0.01740000  0.75900000  0.22780000  1
  C  C147  1  0.03677000  0.40477000  0.25114000  1
  C  C148  1  0.04935000  0.77525000  0.61710000  1
  C  C149  1  0.05060000  0.76750000  0.21500000  1
  C  C150  1  0.05622000  0.32120000  0.81780000  1
  C  C151  1  0.06686000  0.30374000  0.53394000  1
  C  C152  1  0.07435000  0.29118000  0.78352000  1
  C  C153  1  0.08188000  0.37317000  0.86192000  1
  C  C154  1  0.08237000  0.27631000  0.55982000  1
  C  C155  1  0.08979000  0.58026000  0.79558000  1
  C  C156  1  0.09008000  0.41458000  0.26676000  1
  C  C157  1  0.09735000  0.81085000  0.24970000  1
  C  C158  1  0.09771000  0.81761000  0.66942000  1
  C  C159  1  0.09810000  0.35414000  0.56164000  1
  C  C160  1  0.10039000  0.86899000  0.68478000  1
  C  C161  1  0.10125000  0.42645000  0.23390000  1
  C  C162  1  0.10606000  0.85956000  0.29912000  1
  C  C163  1  0.11075000  0.57906000  0.84600000  1
  C  C164  1  0.11566000  0.57201000  0.76774000  1
  C  C165  1  0.12058000  0.31552000  0.79542000  1
  C  C166  1  0.12784000  0.39741000  0.87384000  1
  C  C167  1  0.13026000  0.29957000  0.61430000  1
  C  C168  1  0.13101000  0.41561000  0.31522000  1
  C  C169  1  0.13265000  0.80745000  0.23390000  1
  C  C170  1  0.14044000  0.80694000  0.70088000  1
  C  C171  1  0.14125000  0.28454000  0.76022000  1
  C  C172  1  0.14527000  0.37667000  0.61582000  1
  C  C173  1  0.14745000  0.27188000  0.64540000  1
  C  C174  1  0.14782000  0.90992000  0.73324000  1
  C  C175  1  0.14805000  0.36817000  0.84142000  1
  C  C176  1  0.14819000  0.90229000  0.33058000  1
  C  C177  1  0.15235000  0.43885000  0.24970000  1
  C  C178  1  0.15363000  0.96323000  0.74886000  1
  C  C179  1  0.15758000  0.45545000  0.92204000  1
  C  C180  1  0.15815000  0.95065000  0.38290000  1
  C  C181  1  0.15864000  0.57027000  0.86886000  1
  C  C182  1  0.16154000  0.34890000  0.64138000  1
  C  C183  1  0.16418000  0.56360000  0.79192000  1
  C  C184  1  0.16440000  0.44750000  0.21500000  1
  C  C185  1  0.17668000  0.85218000  0.26676000  1
  C  C186  1  0.17842000  0.43189000  0.64798000  1
  C  C187  1  0.17910000  0.56541000  0.91982000  1
  C  C188  1  0.18239000  0.42829000  0.33058000  1
  C  C189  1  0.18421000  0.89961000  0.31522000  1
  C  C190  1  0.18584000  0.56315000  0.84254000  1
  C  C191  1  0.18915000  0.84765000  0.75030000  1
  C  C192  1  0.19084000  0.55184000  0.76060000  1
  C  C193  1  0.19255000  0.89875000  0.76610000  1
  C  C194  1  0.19306000  0.43956000  0.29912000  1
  C  C195  1  0.19573000  0.11566000  0.76774000  1
  C  C196  1  0.19912000  0.00382000  0.78144000  1
  C  C197  1  0.20315000  0.99055000  0.42990000  1
  C  C198  1  0.20750000  0.09810000  0.56164000  1
  C  C199  1  0.20876000  0.19084000  0.76060000  1
  C  C200  1  0.21040000  0.46880000  0.22780000  1
  C  C201  1  0.21437000  0.84637000  0.25114000  1
  C  C202  1  0.21532000  0.08979000  0.79558000  1
  C  C203  1  0.21609000  0.17842000  0.64798000  1
  C  C204  1  0.21996000  0.51125000  0.13808000  1
  C  C205  1  0.22238000  0.80088000  0.21856000  1
  C  C206  1  0.22475000  0.43225000  0.38290000  1
  C  C207  1  0.22675000  0.43935000  0.42990000  1
  C  C208  1  0.22832000  0.16418000  0.79192000  1
  C  C209  1  0.23020000  0.06686000  0.53394000  1
  C  C210  1  0.23250000  0.83560000  0.78500000  1
  C  C211  1  0.23554000  0.53341000  0.07796000  1
  C  C212  1  0.23842000  0.50340000  0.18220000  1
  C  C213  1  0.23915000  0.14527000  0.61582000  1
  C  C214  1  0.24100000  0.78960000  0.77220000  1
  C  C215  1  0.25400000  0.52357000  0.12616000  1
  C  C216  1  0.25928000  0.64559000  0.08018000  1
  C  C217  1  0.26475000  0.73306000  0.15400000  1
  C  C218  1  0.26694000  0.11075000  0.84600000  1
  C  C219  1  0.27188000  0.49795000  0.64540000  1
  C  C220  1  0.27631000  0.47745000  0.55982000  1
  C  C221  1  0.27939000  0.18584000  0.84254000  1
  C  C222  1  0.28351000  0.08237000  0.55982000  1
  C  C223  1  0.28454000  0.61897000  0.76022000  1
  C  C224  1  0.28978000  0.70141000  0.13114000  1
  C  C225  1  0.29083000  0.50766000  0.21648000  1
  C  C226  1  0.29118000  0.70917000  0.78352000  1
  C  C227  1  0.29248000  0.16154000  0.64138000  1
  C  C228  1  0.29421000  0.78468000  0.20442000  1
  C  C229  1  0.29859000  0.15864000  0.86886000  1
  C  C230  1  0.29957000  0.48404000  0.61430000  1
  C  C231  1  0.30374000  0.46708000  0.53394000  1
  C  C232  1  0.30663000  0.52675000  0.15858000  1
  C  C233  1  0.31473000  0.13026000  0.61430000  1
  C  C234  1  0.31552000  0.67484000  0.79542000  1
  C  C235  1  0.32120000  0.76158000  0.81780000  1
  C  C236  1  0.32516000  0.52010000  0.20458000  1
  C  C237  1  0.34330000  0.72061000  0.15746000  1
  C  C238  1  0.34792000  0.80427000  0.23226000  1
  C  C239  1  0.34890000  0.47984000  0.64138000  1
  C  C240  1  0.35414000  0.46354000  0.56164000  1
  C  C241  1  0.35441000  0.17910000  0.91982000  1
  C  C242  1  0.36817000  0.69337000  0.84142000  1
  C  C243  1  0.37226000  0.77168000  0.20808000  1
  C  C244  1  0.37317000  0.78004000  0.86192000  1
  C  C245  1  0.37352000  0.14745000  0.64540000  1
  C  C246  1  0.37667000  0.47055000  0.61582000  1
  C  C247  1  0.38103000  0.52432000  0.23978000  1
  C  C248  1  0.39741000  0.74600000  0.87384000  1
  C  C249  1  0.40477000  0.21437000  0.25114000  1
  C  C250  1  0.41458000  0.17668000  0.26676000  1
  C  C251  1  0.41561000  0.18421000  0.31522000  1
  C  C252  1  0.41768000  0.22238000  0.21856000  1
  C  C253  1  0.41974000  0.29421000  0.20442000  1
  C  C254  1  0.42094000  0.26475000  0.15400000  1
  C  C255  1  0.42645000  0.13265000  0.23390000  1
  C  C256  1  0.42799000  0.34792000  0.23226000  1
  C  C257  1  0.42829000  0.14819000  0.33058000  1
  C  C258  1  0.42973000  0.28978000  0.13114000  1
  C  C259  1  0.43024000  0.79124000  0.23940000  1
  C  C260  1  0.43189000  0.46956000  0.64798000  1
  C  C261  1  0.43225000  0.15815000  0.38290000  1
  C  C262  1  0.43459000  0.25928000  0.08018000  1
  C  C263  1  0.43640000  0.37226000  0.20808000  1
  C  C264  1  0.43685000  0.34330000  0.15746000  1
  C  C265  1  0.43885000  0.09735000  0.24970000  1
  C  C266  1  0.43935000  0.20315000  0.42990000  1
  C  C267  1  0.43956000  0.10606000  0.29912000  1
  C  C268  1  0.44750000  0.05060000  0.21500000  1
  C  C269  1  0.44816000  0.43024000  0.23940000  1
  C  C270  1  0.45545000  0.76446000  0.92204000  1
  C  C271  1  0.46354000  0.20750000  0.56164000  1
  C  C272  1  0.46659000  0.15758000  0.92204000  1
  C  C273  1  0.46708000  0.23020000  0.53394000  1
  C  C274  1  0.46880000  0.01740000  0.22780000  1
  C  C275  1  0.46956000  0.21609000  0.64798000  1
  C  C276  1  0.47055000  0.23915000  0.61582000  1
  C  C277  1  0.47325000  0.14805000  0.84142000  1
  C  C278  1  0.47568000  0.14125000  0.76022000  1
  C  C279  1  0.47643000  0.12784000  0.87384000  1
  C  C280  1  0.47745000  0.28351000  0.55982000  1
  C  C281  1  0.47984000  0.29248000  0.64138000  1
  C  C282  1  0.47990000  0.12058000  0.79542000  1
  C  C283  1  0.48404000  0.31473000  0.61430000  1
  C  C284  1  0.48875000  0.08188000  0.86192000  1
  C  C285  1  0.49234000  0.07435000  0.78352000  1
  C  C286  1  0.49660000  0.05622000  0.81780000  1
  C  C287  1  0.49795000  0.37352000  0.64540000  1
  C  C288  1  0.50205000  0.62648000  0.35460000  1
  C  C289  1  0.50340000  0.94378000  0.18220000  1
  C  C290  1  0.50766000  0.92565000  0.21648000  1
  C  C291  1  0.51125000  0.91812000  0.13808000  1
  C  C292  1  0.51596000  0.68527000  0.38570000  1
  C  C293  1  0.52010000  0.87942000  0.20458000  1
  C  C294  1  0.52016000  0.70752000  0.35862000  1
  C  C295  1  0.52255000  0.71649000  0.44018000  1
  C  C296  1  0.52357000  0.87216000  0.12616000  1
  C  C297  1  0.52432000  0.85875000  0.23978000  1
  C  C298  1  0.52675000  0.85195000  0.15858000  1
  C  C299  1  0.52945000  0.76085000  0.38418000  1
  C  C300  1  0.53044000  0.78391000  0.35202000  1
  C  C301  1  0.53120000  0.98260000  0.77220000  1
  C  C302  1  0.53292000  0.76980000  0.46606000  1
  C  C303  1  0.53341000  0.84242000  0.07796000  1
  C  C304  1  0.53646000  0.79250000  0.43836000  1
  C  C305  1  0.54455000  0.23554000  0.07796000  1
  C  C306  1  0.55184000  0.56976000  0.76060000  1
  C  C307  1  0.55250000  0.94940000  0.78500000  1
  C  C308  1  0.56044000  0.89394000  0.70088000  1
  C  C309  1  0.56065000  0.79685000  0.57010000  1
  C  C310  1  0.56115000  0.90265000  0.75030000  1
  C  C311  1  0.56315000  0.65670000  0.84254000  1
  C  C312  1  0.56360000  0.62774000  0.79192000  1
  C  C313  1  0.56541000  0.74072000  0.91982000  1
  C  C314  1  0.56775000  0.84185000  0.61710000  1
  C  C315  1  0.56811000  0.53044000  0.35202000  1
  C  C316  1  0.56976000  0.20876000  0.76060000  1
  C  C317  1  0.57027000  0.71022000  0.86886000  1
  C  C318  1  0.57171000  0.85181000  0.66942000  1
  C  C319  1  0.57201000  0.65208000  0.76774000  1
  C  C320  1  0.57355000  0.86735000  0.76610000  1
  C  C321  1  0.57906000  0.73525000  0.84600000  1
  C  C322  1  0.58026000  0.70579000  0.79558000  1
  C  C323  1  0.58232000  0.77762000  0.78144000  1
  C  C324  1  0.58439000  0.81579000  0.68478000  1
  C  C325  1  0.58542000  0.82332000  0.73324000  1
  C  C326  1  0.59523000  0.78563000  0.74886000  1
  C  C327  1  0.60259000  0.25400000  0.12616000  1
  C  C328  1  0.61897000  0.47568000  0.76022000  1
  C  C329  1  0.62333000  0.52945000  0.38418000  1
  C  C330  1  0.62648000  0.85255000  0.35460000  1
  C  C331  1  0.62683000  0.21996000  0.13808000  1
  C  C332  1  0.62774000  0.22832000  0.79192000  1
  C  C333  1  0.63183000  0.30663000  0.15858000  1
  C  C334  1  0.64559000  0.82090000  0.08018000  1
  C  C335  1  0.64586000  0.53646000  0.43836000  1
  C  C336  1  0.65110000  0.52016000  0.35862000  1
  C  C337  1  0.65208000  0.19573000  0.76774000  1
  C  C338  1  0.65670000  0.27939000  0.84254000  1
  C  C339  1  0.67484000  0.47990000  0.79542000  1
  C  C340  1  0.67880000  0.23842000  0.18220000  1
  C  C341  1  0.68448000  0.32516000  0.20458000  1
  C  C342  1  0.68527000  0.86974000  0.38570000  1
  C  C343  1  0.69337000  0.47325000  0.84142000  1
  C  C344  1  0.69626000  0.53292000  0.46606000  1
  C  C345  1  0.70043000  0.51596000  0.38570000  1
  C  C346  1  0.70141000  0.84136000  0.13114000  1
  C  C347  1  0.70579000  0.21532000  0.79558000  1
  C  C348  1  0.70752000  0.83846000  0.35862000  1
  C  C349  1  0.70882000  0.29083000  0.21648000  1
  C  C350  1  0.70917000  0.49234000  0.78352000  1
  C  C351  1  0.71022000  0.29859000  0.86886000  1
  C  C352  1  0.71546000  0.38103000  0.23978000  1
  C  C353  1  0.71649000  0.91763000  0.44018000  1
  C  C354  1  0.72061000  0.81416000  0.15746000  1
  C  C355  1  0.72369000  0.52255000  0.44018000  1
  C  C356  1  0.72812000  0.50205000  0.35460000  1
  C  C357  1  0.73306000  0.88925000  0.15400000  1
  C  C358  1  0.73525000  0.26694000  0.84600000  1
  C  C359  1  0.74072000  0.35441000  0.91982000  1
  C  C360  1  0.74600000  0.47643000  0.87384000  1
  C  C361  1  0.75900000  0.21040000  0.22780000  1
  C  C362  1  0.76085000  0.85473000  0.38418000  1
  C  C363  1  0.76158000  0.49660000  0.81780000  1
  C  C364  1  0.76446000  0.46659000  0.92204000  1
  C  C365  1  0.76750000  0.16440000  0.21500000  1
  C  C366  1  0.76980000  0.93314000  0.46606000  1
  C  C367  1  0.77168000  0.83582000  0.20808000  1
  C  C368  1  0.77325000  0.56065000  0.57010000  1
  C  C369  1  0.77525000  0.56775000  0.61710000  1
  C  C370  1  0.77762000  0.19912000  0.78144000  1
  C  C371  1  0.78004000  0.48875000  0.86192000  1
  C  C372  1  0.78391000  0.82158000  0.35202000  1
  C  C373  1  0.78468000  0.91021000  0.20442000  1
  C  C374  1  0.78563000  0.15363000  0.74886000  1
  C  C375  1  0.78960000  0.53120000  0.77220000  1
  C  C376  1  0.79124000  0.80916000  0.23940000  1
  C  C377  1  0.79250000  0.90190000  0.43836000  1
  C  C378  1  0.79685000  0.00945000  0.57010000  1
  C  C379  1  0.80088000  0.99618000  0.21856000  1
  C  C380  1  0.80427000  0.88434000  0.23226000  1
  C  C381  1  0.80694000  0.56044000  0.70088000  1
  C  C382  1  0.80745000  0.10125000  0.23390000  1
  C  C383  1  0.80916000  0.44816000  0.23940000  1
  C  C384  1  0.81085000  0.15235000  0.24970000  1
  C  C385  1  0.81416000  0.43685000  0.15746000  1
  C  C386  1  0.81579000  0.10039000  0.68478000  1
  C  C387  1  0.81761000  0.57171000  0.66942000  1
  C  C388  1  0.82090000  0.43459000  0.08018000  1
  C  C389  1  0.82158000  0.56811000  0.35202000  1
  C  C390  1  0.82332000  0.14782000  0.73324000  1
  C  C391  1  0.83560000  0.55250000  0.78500000  1
  C  C392  1  0.83582000  0.43640000  0.20808000  1
  C  C393  1  0.83846000  0.65110000  0.35862000  1
  C  C394  1  0.84136000  0.42973000  0.13114000  1
  C  C395  1  0.84185000  0.04935000  0.61710000  1
  C  C396  1  0.84242000  0.54455000  0.07796000  1
  C  C397  1  0.84637000  0.03677000  0.25114000  1
  C  C398  1  0.84765000  0.56115000  0.75030000  1
  C  C399  1  0.85181000  0.09771000  0.66942000  1
  C  C400  1  0.85195000  0.63183000  0.15858000  1
  C  C401  1  0.85218000  0.09008000  0.26676000  1
  C  C402  1  0.85255000  0.72812000  0.35460000  1
  C  C403  1  0.85473000  0.62333000  0.38418000  1
  C  C404  1  0.85875000  0.71546000  0.23978000  1
  C  C405  1  0.85956000  0.19306000  0.29912000  1
  C  C406  1  0.86735000  0.19255000  0.76610000  1
  C  C407  1  0.86899000  0.58439000  0.68478000  1
  C  C408  1  0.86974000  0.70043000  0.38570000  1
  C  C409  1  0.87216000  0.60259000  0.12616000  1
  C  C410  1  0.87942000  0.68448000  0.20458000  1
  C  C411  1  0.88434000  0.42799000  0.23226000  1
  C  C412  1  0.88925000  0.42094000  0.15400000  1
  C  C413  1  0.89394000  0.14044000  0.70088000  1
  C  C414  1  0.89875000  0.57355000  0.76610000  1
  C  C415  1  0.89961000  0.13101000  0.31522000  1
  C  C416  1  0.90190000  0.64586000  0.43836000  1
  C  C417  1  0.90229000  0.18239000  0.33058000  1
  C  C418  1  0.90265000  0.18915000  0.75030000  1
  C  C419  1  0.90992000  0.58542000  0.73324000  1
  C  C420  1  0.91021000  0.41974000  0.20442000  1
  C  C421  1  0.91763000  0.72369000  0.44018000  1
  C  C422  1  0.91812000  0.62683000  0.13808000  1
  C  C423  1  0.92565000  0.70882000  0.21648000  1
  C  C424  1  0.93314000  0.69626000  0.46606000  1
  C  C425  1  0.94378000  0.67880000  0.18220000  1
  C  C426  1  0.94940000  0.23250000  0.78500000  1
  C  C427  1  0.95065000  0.22475000  0.38290000  1
  C  C428  1  0.96323000  0.59523000  0.74886000  1
  C  C429  1  0.98260000  0.24100000  0.77220000  1
  C  C430  1  0.99055000  0.22675000  0.42990000  1
  C  C431  1  0.99618000  0.41768000  0.21856000  1
  N  N432  1  0.00650000  0.31240000  0.85780000  1
  N  N433  1  0.00716000  0.30496000  0.44632000  1
  N  N434  1  0.01720000  0.29010000  0.81640000  1
  N  N435  1  0.01953000  0.38333000  0.27066000  1
  N  N436  1  0.02465000  0.27605000  0.46830000  1
  N  N437  1  0.02870000  0.61780000  0.74740000  1
  N  N438  1  0.03540000  0.72290000  0.16200000  1
  N  N439  1  0.03910000  0.72740000  0.60680000  1
  N  N440  1  0.04360000  0.59700000  0.77940000  1
  N  N441  1  0.11267000  0.98047000  0.72934000  1
  N  N442  1  0.12060000  0.96090000  0.39320000  1
  N  N443  1  0.12660000  0.43910000  0.16200000  1
  N  N444  1  0.12960000  0.02870000  0.74740000  1
  N  N445  1  0.14136000  0.00716000  0.44632000  1
  N  N446  1  0.14870000  0.45460000  0.14220000  1
  N  N447  1  0.18240000  0.04360000  0.77940000  1
  N  N448  1  0.19225000  0.02465000  0.46830000  1
  N  N449  1  0.20080000  0.47370000  0.18360000  1
  N  N450  1  0.25113000  0.88733000  0.27066000  1
  N  N451  1  0.26420000  0.81760000  0.22060000  1
  N  N452  1  0.27260000  0.43230000  0.39320000  1
  N  N453  1  0.27605000  0.44365000  0.46830000  1
  N  N454  1  0.27710000  0.87340000  0.83800000  1
  N  N455  1  0.28130000  0.87040000  0.25260000  1
  N  N456  1  0.29010000  0.79920000  0.81640000  1
  N  N457  1  0.30496000  0.43916000  0.44632000  1
  N  N458  1  0.31240000  0.85130000  0.85780000  1
  N  N459  1  0.38220000  0.28130000  0.25260000  1
  N  N460  1  0.38333000  0.25113000  0.27066000  1
  N  N461  1  0.40300000  0.26420000  0.22060000  1
  N  N462  1  0.43230000  0.12060000  0.39320000  1
  N  N463  1  0.43910000  0.03540000  0.16200000  1
  N  N464  1  0.43916000  0.14136000  0.44632000  1
  N  N465  1  0.44365000  0.19225000  0.46830000  1
  N  N466  1  0.45460000  0.99350000  0.14220000  1
  N  N467  1  0.47370000  0.98280000  0.18360000  1
  N  N468  1  0.52630000  0.01720000  0.81640000  1
  N  N469  1  0.54540000  0.00650000  0.85780000  1
  N  N470  1  0.55635000  0.80775000  0.53170000  1
  N  N471  1  0.56084000  0.85864000  0.55368000  1
  N  N472  1  0.56090000  0.96460000  0.83800000  1
  N  N473  1  0.56770000  0.87940000  0.60680000  1
  N  N474  1  0.59700000  0.73580000  0.77940000  1
  N  N475  1  0.61667000  0.74887000  0.72934000  1
  N  N476  1  0.61780000  0.71870000  0.74740000  1
  N  N477  1  0.68760000  0.14870000  0.14220000  1
  N  N478  1  0.69504000  0.56084000  0.55368000  1
  N  N479  1  0.70990000  0.20080000  0.18360000  1
  N  N480  1  0.71870000  0.12960000  0.74740000  1
  N  N481  1  0.72290000  0.12660000  0.16200000  1
  N  N482  1  0.72395000  0.55635000  0.53170000  1
  N  N483  1  0.72740000  0.56770000  0.60680000  1
  N  N484  1  0.73580000  0.18240000  0.77940000  1
  N  N485  1  0.74887000  0.11267000  0.72934000  1
  N  N486  1  0.79920000  0.52630000  0.81640000  1
  N  N487  1  0.80775000  0.97535000  0.53170000  1
  N  N488  1  0.81760000  0.95640000  0.22060000  1
  N  N489  1  0.85130000  0.54540000  0.85780000  1
  N  N490  1  0.85864000  0.99284000  0.55368000  1
  N  N491  1  0.87040000  0.97130000  0.25260000  1
  N  N492  1  0.87340000  0.56090000  0.83800000  1
  N  N493  1  0.87940000  0.03910000  0.60680000  1
  N  N494  1  0.88733000  0.01953000  0.27066000  1
  N  N495  1  0.95640000  0.40300000  0.22060000  1
  N  N496  1  0.96090000  0.27260000  0.39320000  1
  N  N497  1  0.96460000  0.27710000  0.83800000  1
  N  N498  1  0.97130000  0.38220000  0.25260000  1
  N  N499  1  0.97535000  0.72395000  0.53170000  1
  N  N500  1  0.98047000  0.61667000  0.72934000  1
  N  N501  1  0.98280000  0.70990000  0.18360000  1
  N  N502  1  0.99284000  0.69504000  0.55368000  1
  N  N503  1  0.99350000  0.68760000  0.14220000  1
  O  O504  1  0.11194000  0.23882000  0.71494000  1
  O  O505  1  0.11434000  0.23207000  0.62502000  1
  O  O506  1  0.13219000  0.48165000  0.93952000  1
  O  O507  1  0.15042000  0.56838000  0.93844000  1
  O  O508  1  0.15984000  0.45580000  0.62304000  1
  O  O509  1  0.16498000  0.16675000  0.71238000  1
  O  O510  1  0.16675000  0.54740000  0.71238000  1
  O  O511  1  0.16724000  0.15984000  0.62304000  1
  O  O512  1  0.18670000  0.30639000  0.77876000  1
  O  O513  1  0.19267000  0.54213000  0.06048000  1
  O  O514  1  0.19399000  0.29165000  0.68926000  1
  O  O515  1  0.20359000  0.47063000  0.93868000  1
  O  O516  1  0.21198000  0.62994000  0.06156000  1
  O  O517  1  0.22089000  0.44945000  0.69604000  1
  O  O518  1  0.22266000  0.55745000  0.93922000  1
  O  O519  1  0.23207000  0.51068000  0.62502000  1
  O  O520  1  0.23497000  0.54599000  0.78492000  1
  O  O521  1  0.23882000  0.60300000  0.71494000  1
  O  O522  1  0.23893000  0.23497000  0.78492000  1
  O  O523  1  0.24659000  0.22089000  0.69604000  1
  O  O524  1  0.26491000  0.53195000  0.06132000  1
  O  O525  1  0.28344000  0.61823000  0.06078000  1
  O  O526  1  0.29165000  0.49527000  0.68926000  1
  O  O527  1  0.30639000  0.59206000  0.77876000  1
  O  O528  1  0.37006000  0.15042000  0.93844000  1
  O  O529  1  0.38177000  0.22266000  0.93922000  1
  O  O530  1  0.39295000  0.11434000  0.62502000  1
  O  O531  1  0.39700000  0.52388000  0.28506000  1
  O  O532  1  0.39761000  0.19399000  0.68926000  1
  O  O533  1  0.40794000  0.52763000  0.22124000  1
  O  O534  1  0.43162000  0.21198000  0.06156000  1
  O  O535  1  0.44255000  0.28344000  0.06078000  1
  O  O536  1  0.44945000  0.47515000  0.69604000  1
  O  O537  1  0.45005000  0.76107000  0.21508000  1
  O  O538  1  0.45260000  0.45437000  0.28762000  1
  O  O539  1  0.45401000  0.45005000  0.21508000  1
  O  O540  1  0.45437000  0.83502000  0.28762000  1
  O  O541  1  0.45580000  0.46320000  0.62304000  1
  O  O542  1  0.45787000  0.13219000  0.93952000  1
  O  O543  1  0.46320000  0.16724000  0.62304000  1
  O  O544  1  0.46805000  0.20359000  0.93868000  1
  O  O545  1  0.47063000  0.73509000  0.93868000  1
  O  O546  1  0.47237000  0.18670000  0.77876000  1
  O  O547  1  0.47515000  0.24659000  0.69604000  1
  O  O548  1  0.47612000  0.11194000  0.71494000  1
  O  O549  1  0.48165000  0.80733000  0.93952000  1
  O  O550  1  0.48932000  0.60705000  0.37498000  1
  O  O551  1  0.49527000  0.39761000  0.68926000  1
  O  O552  1  0.50473000  0.60239000  0.31074000  1
  O  O553  1  0.51068000  0.39295000  0.62502000  1
  O  O554  1  0.51835000  0.19267000  0.06048000  1
  O  O555  1  0.52388000  0.88806000  0.28506000  1
  O  O556  1  0.52485000  0.75341000  0.30396000  1
  O  O557  1  0.52763000  0.81330000  0.22124000  1
  O  O558  1  0.52937000  0.26491000  0.06132000  1
  O  O559  1  0.53195000  0.79641000  0.06132000  1
  O  O560  1  0.53680000  0.83276000  0.37696000  1
  O  O561  1  0.54213000  0.86781000  0.06048000  1
  O  O562  1  0.54420000  0.53680000  0.37696000  1
  O  O563  1  0.54563000  0.16498000  0.71238000  1
  O  O564  1  0.54599000  0.54995000  0.78492000  1
  O  O565  1  0.54740000  0.54563000  0.71238000  1
  O  O566  1  0.54995000  0.23893000  0.78492000  1
  O  O567  1  0.55055000  0.52485000  0.30396000  1
  O  O568  1  0.55745000  0.71656000  0.93922000  1
  O  O569  1  0.56838000  0.78802000  0.93844000  1
  O  O570  1  0.59206000  0.47237000  0.77876000  1
  O  O571  1  0.60239000  0.80601000  0.31074000  1
  O  O572  1  0.60300000  0.47612000  0.71494000  1
  O  O573  1  0.60705000  0.88566000  0.37498000  1
  O  O574  1  0.61823000  0.77734000  0.06078000  1
  O  O575  1  0.62994000  0.84958000  0.06156000  1
  O  O576  1  0.69361000  0.40794000  0.22124000  1
  O  O577  1  0.70835000  0.50473000  0.31074000  1
  O  O578  1  0.71656000  0.38177000  0.93922000  1
  O  O579  1  0.73509000  0.46805000  0.93868000  1
  O  O580  1  0.75341000  0.77911000  0.30396000  1
  O  O581  1  0.76107000  0.76503000  0.21508000  1
  O  O582  1  0.76118000  0.39700000  0.28506000  1
  O  O583  1  0.76503000  0.45401000  0.21508000  1
  O  O584  1  0.76793000  0.48932000  0.37498000  1
  O  O585  1  0.77734000  0.44255000  0.06078000  1
  O  O586  1  0.77911000  0.55055000  0.30396000  1
  O  O587  1  0.78802000  0.37006000  0.93844000  1
  O  O588  1  0.79641000  0.52937000  0.06132000  1
  O  O589  1  0.80601000  0.70835000  0.31074000  1
  O  O590  1  0.80733000  0.45787000  0.93952000  1
  O  O591  1  0.81330000  0.69361000  0.22124000  1
  O  O592  1  0.83276000  0.84016000  0.37696000  1
  O  O593  1  0.83325000  0.45260000  0.28762000  1
  O  O594  1  0.83502000  0.83325000  0.28762000  1
  O  O595  1  0.84016000  0.54420000  0.37696000  1
  O  O596  1  0.84958000  0.43162000  0.06156000  1
  O  O597  1  0.86781000  0.51835000  0.06048000  1
  O  O598  1  0.88566000  0.76793000  0.37498000  1
  O  O599  1  0.88806000  0.76118000  0.28506000  1
