# generated using pymatgen
data_CoCu2H14(C5O2)6
_symmetry_space_group_name_H-M   'P 1'
_cell_length_a   18.43100000
_cell_length_b   18.43100000
_cell_length_c   40.52000000
_cell_angle_alpha   90.00000000
_cell_angle_beta   90.00000000
_cell_angle_gamma   120.00000000
_symmetry_Int_Tables_number   1
_chemical_formula_structural   CoCu2H14(C5O2)6
_chemical_formula_sum   'Co6 Cu12 H84 C180 O72'
_cell_volume   11920.59317392
_cell_formula_units_Z   6
loop_
 _symmetry_equiv_pos_site_id
 _symmetry_equiv_pos_as_xyz
  1  'x, y, z'
loop_
 _atom_site_type_symbol
 _atom_site_label
 _atom_site_symmetry_multiplicity
 _atom_site_fract_x
 _atom_site_fract_y
 _atom_site_fract_z
 _atom_site_occupancy
  Co  Co0  1  0.94187000  0.05813000  0.75000000  1
  Co  Co1  1  0.94187000  0.88374000  0.75000000  1
  Co  Co2  1  0.88374000  0.94187000  0.25000000  1
  Co  Co3  1  0.11626000  0.05813000  0.75000000  1
  Co  Co4  1  0.05813000  0.11626000  0.25000000  1
  Co  Co5  1  0.05813000  0.94187000  0.25000000  1
  Cu  Cu6  1  0.95214000  0.47607000  0.97399000  1
  Cu  Cu7  1  0.95214000  0.47607000  0.52601000  1
  Cu  Cu8  1  0.52393000  0.04786000  0.97399000  1
  Cu  Cu9  1  0.52393000  0.04786000  0.52601000  1
  Cu  Cu10  1  0.52393000  0.47607000  0.97399000  1
  Cu  Cu11  1  0.52393000  0.47607000  0.52601000  1
  Cu  Cu12  1  0.47607000  0.52393000  0.47399000  1
  Cu  Cu13  1  0.47607000  0.52393000  0.02601000  1
  Cu  Cu14  1  0.47607000  0.95214000  0.47399000  1
  Cu  Cu15  1  0.47607000  0.95214000  0.02601000  1
  Cu  Cu16  1  0.04786000  0.52393000  0.47399000  1
  Cu  Cu17  1  0.04786000  0.52393000  0.02601000  1
  H  H18  1  0.98860000  0.21200000  0.32680000  1
  H  H19  1  0.98860000  0.21200000  0.17320000  1
  H  H20  1  0.98860000  0.77660000  0.32680000  1
  H  H21  1  0.98860000  0.77660000  0.17320000  1
  H  H22  1  0.95640000  0.24560000  0.38010000  1
  H  H23  1  0.95640000  0.24560000  0.11990000  1
  H  H24  1  0.95640000  0.71080000  0.38010000  1
  H  H25  1  0.95640000  0.71080000  0.11990000  1
  H  H26  1  0.92540000  0.29260000  0.41740000  1
  H  H27  1  0.92540000  0.29260000  0.08260000  1
  H  H28  1  0.92540000  0.63280000  0.41740000  1
  H  H29  1  0.92540000  0.63280000  0.08260000  1
  H  H30  1  0.78800000  0.01140000  0.32680000  1
  H  H31  1  0.78800000  0.01140000  0.17320000  1
  H  H32  1  0.78800000  0.77660000  0.32680000  1
  H  H33  1  0.78800000  0.77660000  0.17320000  1
  H  H34  1  0.77660000  0.78800000  0.82680000  1
  H  H35  1  0.77660000  0.78800000  0.67320000  1
  H  H36  1  0.77660000  0.98860000  0.82680000  1
  H  H37  1  0.77660000  0.98860000  0.67320000  1
  H  H38  1  0.76350000  0.23650000  0.49140000  1
  H  H39  1  0.76350000  0.23650000  0.00860000  1
  H  H40  1  0.76350000  0.52700000  0.49140000  1
  H  H41  1  0.76350000  0.52700000  0.00860000  1
  H  H42  1  0.75440000  0.04360000  0.38010000  1
  H  H43  1  0.75440000  0.04360000  0.11990000  1
  H  H44  1  0.75440000  0.71080000  0.38010000  1
  H  H45  1  0.75440000  0.71080000  0.11990000  1
  H  H46  1  0.71080000  0.75440000  0.88010000  1
  H  H47  1  0.71080000  0.75440000  0.61990000  1
  H  H48  1  0.71080000  0.95640000  0.88010000  1
  H  H49  1  0.71080000  0.95640000  0.61990000  1
  H  H50  1  0.70740000  0.07460000  0.41740000  1
  H  H51  1  0.70740000  0.07460000  0.08260000  1
  H  H52  1  0.70740000  0.63280000  0.41740000  1
  H  H53  1  0.70740000  0.63280000  0.08260000  1
  H  H54  1  0.63280000  0.70740000  0.91740000  1
  H  H55  1  0.63280000  0.70740000  0.58260000  1
  H  H56  1  0.63280000  0.92540000  0.91740000  1
  H  H57  1  0.63280000  0.92540000  0.58260000  1
  H  H58  1  0.52700000  0.76350000  0.99140000  1
  H  H59  1  0.52700000  0.76350000  0.50860000  1
  H  H60  1  0.47300000  0.23650000  0.49140000  1
  H  H61  1  0.47300000  0.23650000  0.00860000  1
  H  H62  1  0.36720000  0.07460000  0.41740000  1
  H  H63  1  0.36720000  0.07460000  0.08260000  1
  H  H64  1  0.36720000  0.29260000  0.41740000  1
  H  H65  1  0.36720000  0.29260000  0.08260000  1
  H  H66  1  0.29260000  0.36720000  0.91740000  1
  H  H67  1  0.29260000  0.36720000  0.58260000  1
  H  H68  1  0.29260000  0.92540000  0.91740000  1
  H  H69  1  0.29260000  0.92540000  0.58260000  1
  H  H70  1  0.28920000  0.04360000  0.38010000  1
  H  H71  1  0.28920000  0.04360000  0.11990000  1
  H  H72  1  0.28920000  0.24560000  0.38010000  1
  H  H73  1  0.28920000  0.24560000  0.11990000  1
  H  H74  1  0.24560000  0.28920000  0.88010000  1
  H  H75  1  0.24560000  0.28920000  0.61990000  1
  H  H76  1  0.24560000  0.95640000  0.88010000  1
  H  H77  1  0.24560000  0.95640000  0.61990000  1
  H  H78  1  0.23650000  0.47300000  0.99140000  1
  H  H79  1  0.23650000  0.47300000  0.50860000  1
  H  H80  1  0.23650000  0.76350000  0.99140000  1
  H  H81  1  0.23650000  0.76350000  0.50860000  1
  H  H82  1  0.22340000  0.01140000  0.32680000  1
  H  H83  1  0.22340000  0.01140000  0.17320000  1
  H  H84  1  0.22340000  0.21200000  0.32680000  1
  H  H85  1  0.22340000  0.21200000  0.17320000  1
  H  H86  1  0.21200000  0.22340000  0.82680000  1
  H  H87  1  0.21200000  0.22340000  0.67320000  1
  H  H88  1  0.21200000  0.98860000  0.82680000  1
  H  H89  1  0.21200000  0.98860000  0.67320000  1
  H  H90  1  0.07460000  0.36720000  0.91740000  1
  H  H91  1  0.07460000  0.36720000  0.58260000  1
  H  H92  1  0.07460000  0.70740000  0.91740000  1
  H  H93  1  0.07460000  0.70740000  0.58260000  1
  H  H94  1  0.04360000  0.28920000  0.88010000  1
  H  H95  1  0.04360000  0.28920000  0.61990000  1
  H  H96  1  0.04360000  0.75440000  0.88010000  1
  H  H97  1  0.04360000  0.75440000  0.61990000  1
  H  H98  1  0.01140000  0.22340000  0.82680000  1
  H  H99  1  0.01140000  0.22340000  0.67320000  1
  H  H100  1  0.01140000  0.78800000  0.82680000  1
  H  H101  1  0.01140000  0.78800000  0.67320000  1
  C  C102  1  0.93950000  0.17310000  0.33720000  1
  C  C103  1  0.93950000  0.17310000  0.16280000  1
  C  C104  1  0.93950000  0.76640000  0.33720000  1
  C  C105  1  0.93950000  0.76640000  0.16280000  1
  C  C106  1  0.92320000  0.07680000  0.29570000  1
  C  C107  1  0.92320000  0.07680000  0.20430000  1
  C  C108  1  0.92320000  0.84640000  0.29570000  1
  C  C109  1  0.92320000  0.84640000  0.20430000  1
  C  C110  1  0.91680000  0.19730000  0.36940000  1
  C  C111  1  0.91680000  0.19730000  0.13060000  1
  C  C112  1  0.91680000  0.71950000  0.36940000  1
  C  C113  1  0.91680000  0.71950000  0.13060000  1
  C  C114  1  0.90890000  0.35810000  0.47340000  1
  C  C115  1  0.90890000  0.35810000  0.02660000  1
  C  C116  1  0.90890000  0.55080000  0.47340000  1
  C  C117  1  0.90890000  0.55080000  0.02660000  1
  C  C118  1  0.89610000  0.10390000  0.32400000  1
  C  C119  1  0.89610000  0.10390000  0.17600000  1
  C  C120  1  0.89610000  0.79220000  0.32400000  1
  C  C121  1  0.89610000  0.79220000  0.17600000  1
  C  C122  1  0.87500000  0.25540000  0.42755000  1
  C  C123  1  0.87500000  0.25540000  0.07245000  1
  C  C124  1  0.87500000  0.61960000  0.42755000  1
  C  C125  1  0.87500000  0.61960000  0.07245000  1
  C  C126  1  0.85430000  0.27780000  0.45710000  1
  C  C127  1  0.85430000  0.27780000  0.04290000  1
  C  C128  1  0.85430000  0.57650000  0.45710000  1
  C  C129  1  0.85430000  0.57650000  0.04290000  1
  C  C130  1  0.84640000  0.92320000  0.79570000  1
  C  C131  1  0.84640000  0.92320000  0.70430000  1
  C  C132  1  0.84600000  0.15400000  0.38200000  1
  C  C133  1  0.84600000  0.15400000  0.11800000  1
  C  C134  1  0.84600000  0.69200000  0.38200000  1
  C  C135  1  0.84600000  0.69200000  0.11800000  1
  C  C136  1  0.82690000  0.06050000  0.33720000  1
  C  C137  1  0.82690000  0.06050000  0.16280000  1
  C  C138  1  0.82690000  0.76640000  0.33720000  1
  C  C139  1  0.82690000  0.76640000  0.16280000  1
  C  C140  1  0.82200000  0.17800000  0.41240000  1
  C  C141  1  0.82200000  0.17800000  0.08760000  1
  C  C142  1  0.82200000  0.64400000  0.41240000  1
  C  C143  1  0.82200000  0.64400000  0.08760000  1
  C  C144  1  0.80270000  0.08320000  0.36940000  1
  C  C145  1  0.80270000  0.08320000  0.13060000  1
  C  C146  1  0.80270000  0.71950000  0.36940000  1
  C  C147  1  0.80270000  0.71950000  0.13060000  1
  C  C148  1  0.79220000  0.89610000  0.82400000  1
  C  C149  1  0.79220000  0.89610000  0.67600000  1
  C  C150  1  0.77790000  0.22210000  0.47140000  1
  C  C151  1  0.77790000  0.22210000  0.02860000  1
  C  C152  1  0.77790000  0.55580000  0.47140000  1
  C  C153  1  0.77790000  0.55580000  0.02860000  1
  C  C154  1  0.76640000  0.82690000  0.83720000  1
  C  C155  1  0.76640000  0.82690000  0.66280000  1
  C  C156  1  0.76640000  0.93950000  0.83720000  1
  C  C157  1  0.76640000  0.93950000  0.66280000  1
  C  C158  1  0.74460000  0.12500000  0.42755000  1
  C  C159  1  0.74460000  0.12500000  0.07245000  1
  C  C160  1  0.74460000  0.61960000  0.42755000  1
  C  C161  1  0.74460000  0.61960000  0.07245000  1
  C  C162  1  0.72220000  0.14570000  0.45710000  1
  C  C163  1  0.72220000  0.14570000  0.04290000  1
  C  C164  1  0.72220000  0.57650000  0.45710000  1
  C  C165  1  0.72220000  0.57650000  0.04290000  1
  C  C166  1  0.71950000  0.80270000  0.86940000  1
  C  C167  1  0.71950000  0.80270000  0.63060000  1
  C  C168  1  0.71950000  0.91680000  0.86940000  1
  C  C169  1  0.71950000  0.91680000  0.63060000  1
  C  C170  1  0.69200000  0.84600000  0.88200000  1
  C  C171  1  0.69200000  0.84600000  0.61800000  1
  C  C172  1  0.64400000  0.82200000  0.91240000  1
  C  C173  1  0.64400000  0.82200000  0.58760000  1
  C  C174  1  0.64190000  0.09110000  0.47340000  1
  C  C175  1  0.64190000  0.09110000  0.02660000  1
  C  C176  1  0.64190000  0.55080000  0.47340000  1
  C  C177  1  0.64190000  0.55080000  0.02660000  1
  C  C178  1  0.61960000  0.74460000  0.92755000  1
  C  C179  1  0.61960000  0.74460000  0.57245000  1
  C  C180  1  0.61960000  0.87500000  0.92755000  1
  C  C181  1  0.61960000  0.87500000  0.57245000  1
  C  C182  1  0.57650000  0.72220000  0.95710000  1
  C  C183  1  0.57650000  0.72220000  0.54290000  1
  C  C184  1  0.57650000  0.85430000  0.95710000  1
  C  C185  1  0.57650000  0.85430000  0.54290000  1
  C  C186  1  0.55580000  0.77790000  0.97140000  1
  C  C187  1  0.55580000  0.77790000  0.52860000  1
  C  C188  1  0.55080000  0.64190000  0.97340000  1
  C  C189  1  0.55080000  0.64190000  0.52660000  1
  C  C190  1  0.55080000  0.90890000  0.97340000  1
  C  C191  1  0.55080000  0.90890000  0.52660000  1
  C  C192  1  0.44920000  0.09110000  0.47340000  1
  C  C193  1  0.44920000  0.09110000  0.02660000  1
  C  C194  1  0.44920000  0.35810000  0.47340000  1
  C  C195  1  0.44920000  0.35810000  0.02660000  1
  C  C196  1  0.44420000  0.22210000  0.47140000  1
  C  C197  1  0.44420000  0.22210000  0.02860000  1
  C  C198  1  0.42350000  0.14570000  0.45710000  1
  C  C199  1  0.42350000  0.14570000  0.04290000  1
  C  C200  1  0.42350000  0.27780000  0.45710000  1
  C  C201  1  0.42350000  0.27780000  0.04290000  1
  C  C202  1  0.38040000  0.12500000  0.42755000  1
  C  C203  1  0.38040000  0.12500000  0.07245000  1
  C  C204  1  0.38040000  0.25540000  0.42755000  1
  C  C205  1  0.38040000  0.25540000  0.07245000  1
  C  C206  1  0.35810000  0.44920000  0.97340000  1
  C  C207  1  0.35810000  0.44920000  0.52660000  1
  C  C208  1  0.35810000  0.90890000  0.97340000  1
  C  C209  1  0.35810000  0.90890000  0.52660000  1
  C  C210  1  0.35600000  0.17800000  0.41240000  1
  C  C211  1  0.35600000  0.17800000  0.08760000  1
  C  C212  1  0.30800000  0.15400000  0.38200000  1
  C  C213  1  0.30800000  0.15400000  0.11800000  1
  C  C214  1  0.28050000  0.08320000  0.36940000  1
  C  C215  1  0.28050000  0.08320000  0.13060000  1
  C  C216  1  0.28050000  0.19730000  0.36940000  1
  C  C217  1  0.28050000  0.19730000  0.13060000  1
  C  C218  1  0.27780000  0.42350000  0.95710000  1
  C  C219  1  0.27780000  0.42350000  0.54290000  1
  C  C220  1  0.27780000  0.85430000  0.95710000  1
  C  C221  1  0.27780000  0.85430000  0.54290000  1
  C  C222  1  0.25540000  0.38040000  0.92755000  1
  C  C223  1  0.25540000  0.38040000  0.57245000  1
  C  C224  1  0.25540000  0.87500000  0.92755000  1
  C  C225  1  0.25540000  0.87500000  0.57245000  1
  C  C226  1  0.23360000  0.06050000  0.33720000  1
  C  C227  1  0.23360000  0.06050000  0.16280000  1
  C  C228  1  0.23360000  0.17310000  0.33720000  1
  C  C229  1  0.23360000  0.17310000  0.16280000  1
  C  C230  1  0.22210000  0.44420000  0.97140000  1
  C  C231  1  0.22210000  0.44420000  0.52860000  1
  C  C232  1  0.22210000  0.77790000  0.97140000  1
  C  C233  1  0.22210000  0.77790000  0.52860000  1
  C  C234  1  0.20780000  0.10390000  0.32400000  1
  C  C235  1  0.20780000  0.10390000  0.17600000  1
  C  C236  1  0.19730000  0.28050000  0.86940000  1
  C  C237  1  0.19730000  0.28050000  0.63060000  1
  C  C238  1  0.19730000  0.91680000  0.86940000  1
  C  C239  1  0.19730000  0.91680000  0.63060000  1
  C  C240  1  0.17800000  0.35600000  0.91240000  1
  C  C241  1  0.17800000  0.35600000  0.58760000  1
  C  C242  1  0.17800000  0.82200000  0.91240000  1
  C  C243  1  0.17800000  0.82200000  0.58760000  1
  C  C244  1  0.17310000  0.23360000  0.83720000  1
  C  C245  1  0.17310000  0.23360000  0.66280000  1
  C  C246  1  0.17310000  0.93950000  0.83720000  1
  C  C247  1  0.17310000  0.93950000  0.66280000  1
  C  C248  1  0.15400000  0.30800000  0.88200000  1
  C  C249  1  0.15400000  0.30800000  0.61800000  1
  C  C250  1  0.15400000  0.84600000  0.88200000  1
  C  C251  1  0.15400000  0.84600000  0.61800000  1
  C  C252  1  0.15360000  0.07680000  0.29570000  1
  C  C253  1  0.15360000  0.07680000  0.20430000  1
  C  C254  1  0.14570000  0.42350000  0.95710000  1
  C  C255  1  0.14570000  0.42350000  0.54290000  1
  C  C256  1  0.14570000  0.72220000  0.95710000  1
  C  C257  1  0.14570000  0.72220000  0.54290000  1
  C  C258  1  0.12500000  0.38040000  0.92755000  1
  C  C259  1  0.12500000  0.38040000  0.57245000  1
  C  C260  1  0.12500000  0.74460000  0.92755000  1
  C  C261  1  0.12500000  0.74460000  0.57245000  1
  C  C262  1  0.10390000  0.20780000  0.82400000  1
  C  C263  1  0.10390000  0.20780000  0.67600000  1
  C  C264  1  0.10390000  0.89610000  0.82400000  1
  C  C265  1  0.10390000  0.89610000  0.67600000  1
  C  C266  1  0.09110000  0.44920000  0.97340000  1
  C  C267  1  0.09110000  0.44920000  0.52660000  1
  C  C268  1  0.09110000  0.64190000  0.97340000  1
  C  C269  1  0.09110000  0.64190000  0.52660000  1
  C  C270  1  0.08320000  0.28050000  0.86940000  1
  C  C271  1  0.08320000  0.28050000  0.63060000  1
  C  C272  1  0.08320000  0.80270000  0.86940000  1
  C  C273  1  0.08320000  0.80270000  0.63060000  1
  C  C274  1  0.07680000  0.15360000  0.79570000  1
  C  C275  1  0.07680000  0.15360000  0.70430000  1
  C  C276  1  0.07680000  0.92320000  0.79570000  1
  C  C277  1  0.07680000  0.92320000  0.70430000  1
  C  C278  1  0.06050000  0.23360000  0.83720000  1
  C  C279  1  0.06050000  0.23360000  0.66280000  1
  C  C280  1  0.06050000  0.82690000  0.83720000  1
  C  C281  1  0.06050000  0.82690000  0.66280000  1
  O  O282  1  0.99050000  0.12220000  0.28475000  1
  O  O283  1  0.99050000  0.12220000  0.21525000  1
  O  O284  1  0.99050000  0.86830000  0.28475000  1
  O  O285  1  0.99050000  0.86830000  0.21525000  1
  O  O286  1  0.97360000  0.41150000  0.45668000  1
  O  O287  1  0.97360000  0.41150000  0.04332000  1
  O  O288  1  0.97360000  0.56210000  0.45668000  1
  O  O289  1  0.97360000  0.56210000  0.04332000  1
  O  O290  1  0.89030000  0.37180000  0.99767000  1
  O  O291  1  0.89030000  0.37180000  0.50233000  1
  O  O292  1  0.89030000  0.51850000  0.99767000  1
  O  O293  1  0.89030000  0.51850000  0.50233000  1
  O  O294  1  0.87780000  0.00950000  0.28475000  1
  O  O295  1  0.87780000  0.00950000  0.21525000  1
  O  O296  1  0.87780000  0.86830000  0.28475000  1
  O  O297  1  0.87780000  0.86830000  0.21525000  1
  O  O298  1  0.86830000  0.87780000  0.78475000  1
  O  O299  1  0.86830000  0.87780000  0.71525000  1
  O  O300  1  0.86830000  0.99050000  0.78475000  1
  O  O301  1  0.86830000  0.99050000  0.71525000  1
  O  O302  1  0.62820000  0.10970000  0.99767000  1
  O  O303  1  0.62820000  0.10970000  0.50233000  1
  O  O304  1  0.62820000  0.51850000  0.99767000  1
  O  O305  1  0.62820000  0.51850000  0.50233000  1
  O  O306  1  0.58850000  0.02640000  0.45668000  1
  O  O307  1  0.58850000  0.02640000  0.04332000  1
  O  O308  1  0.58850000  0.56210000  0.45668000  1
  O  O309  1  0.58850000  0.56210000  0.04332000  1
  O  O310  1  0.56210000  0.58850000  0.95668000  1
  O  O311  1  0.56210000  0.58850000  0.54332000  1
  O  O312  1  0.56210000  0.97360000  0.95668000  1
  O  O313  1  0.56210000  0.97360000  0.54332000  1
  O  O314  1  0.51850000  0.62820000  0.49767000  1
  O  O315  1  0.51850000  0.62820000  0.00233000  1
  O  O316  1  0.51850000  0.89030000  0.49767000  1
  O  O317  1  0.51850000  0.89030000  0.00233000  1
  O  O318  1  0.48150000  0.10970000  0.99767000  1
  O  O319  1  0.48150000  0.10970000  0.50233000  1
  O  O320  1  0.48150000  0.37180000  0.99767000  1
  O  O321  1  0.48150000  0.37180000  0.50233000  1
  O  O322  1  0.43790000  0.02640000  0.45668000  1
  O  O323  1  0.43790000  0.02640000  0.04332000  1
  O  O324  1  0.43790000  0.41150000  0.45668000  1
  O  O325  1  0.43790000  0.41150000  0.04332000  1
  O  O326  1  0.41150000  0.43790000  0.95668000  1
  O  O327  1  0.41150000  0.43790000  0.54332000  1
  O  O328  1  0.41150000  0.97360000  0.95668000  1
  O  O329  1  0.41150000  0.97360000  0.54332000  1
  O  O330  1  0.37180000  0.48150000  0.49767000  1
  O  O331  1  0.37180000  0.48150000  0.00233000  1
  O  O332  1  0.37180000  0.89030000  0.49767000  1
  O  O333  1  0.37180000  0.89030000  0.00233000  1
  O  O334  1  0.13170000  0.00950000  0.28475000  1
  O  O335  1  0.13170000  0.00950000  0.21525000  1
  O  O336  1  0.13170000  0.12220000  0.28475000  1
  O  O337  1  0.13170000  0.12220000  0.21525000  1
  O  O338  1  0.12220000  0.13170000  0.78475000  1
  O  O339  1  0.12220000  0.13170000  0.71525000  1
  O  O340  1  0.12220000  0.99050000  0.78475000  1
  O  O341  1  0.12220000  0.99050000  0.71525000  1
  O  O342  1  0.10970000  0.48150000  0.49767000  1
  O  O343  1  0.10970000  0.48150000  0.00233000  1
  O  O344  1  0.10970000  0.62820000  0.49767000  1
  O  O345  1  0.10970000  0.62820000  0.00233000  1
  O  O346  1  0.02640000  0.43790000  0.95668000  1
  O  O347  1  0.02640000  0.43790000  0.54332000  1
  O  O348  1  0.02640000  0.58850000  0.95668000  1
  O  O349  1  0.02640000  0.58850000  0.54332000  1
  O  O350  1  0.00950000  0.13170000  0.78475000  1
  O  O351  1  0.00950000  0.13170000  0.71525000  1
  O  O352  1  0.00950000  0.87780000  0.78475000  1
  O  O353  1  0.00950000  0.87780000  0.71525000  1
