# generated using pymatgen
data_Mn3H57C51N8O9
_symmetry_space_group_name_H-M   'P 1'
_cell_length_a   17.45740000
_cell_length_b   30.21352320
_cell_length_c   30.21352320
_cell_angle_alpha   85.21232630
_cell_angle_beta   73.20786187
_cell_angle_gamma   73.20786187
_symmetry_Int_Tables_number   1
_chemical_formula_structural   Mn3H57C51N8O9
_chemical_formula_sum   'Mn24 H456 C408 N64 O72'
_cell_volume   14606.02665355
_cell_formula_units_Z   8
loop_
 _symmetry_equiv_pos_site_id
 _symmetry_equiv_pos_as_xyz
  1  'x, y, z'
loop_
 _atom_site_type_symbol
 _atom_site_label
 _atom_site_symmetry_multiplicity
 _atom_site_fract_x
 _atom_site_fract_y
 _atom_site_fract_z
 _atom_site_occupancy
  C  C0  1  0.85998000  0.63776000  0.36148000  1
  C  C1  1  0.14078000  0.13776000  0.86148000  1
  C  C2  1  0.79209000  0.69240000  0.30602000  1
  C  C3  1  0.20949000  0.19240000  0.80602000  1
  C  C4  1  0.92904000  0.58076000  0.41450000  1
  C  C5  1  0.07570000  0.08076000  0.91450000  1
  C  C6  1  0.93983000  0.87535000  0.11399000  1
  C  C7  1  0.07083000  0.37535000  0.61399000  1
  C  C8  1  0.87331000  0.81925000  0.16933000  1
  C  C9  1  0.13811000  0.31925000  0.66933000  1
  C  C10  1  0.30130000  0.56600000  0.40800000  1
  C  C11  1  0.72470000  0.06600000  0.90800000  1
  C  C12  1  0.34468000  0.88772000  0.08532000  1
  C  C13  1  0.68228000  0.38772000  0.58532000  1
  C  C14  1  0.24153000  0.56587000  0.39807000  1
  C  C15  1  0.79453000  0.06587000  0.89807000  1
  C  C16  1  0.89164000  0.91415000  0.04603000  1
  C  C17  1  0.14818000  0.41415000  0.54603000  1
  C  C18  1  0.72779000  0.95239000  0.99881000  1
  C  C19  1  0.32101000  0.45239000  0.49881000  1
  C  C20  1  0.16408000  0.50370000  0.42374000  1
  C  C21  1  0.90848000  0.00370000  0.92374000  1
  C  C22  1  0.45025000  0.47081000  0.45549000  1
  C  C23  1  0.62345000  0.97081000  0.95549000  1
  C  C24  1  0.22675000  0.52263000  0.38467000  1
  C  C25  1  0.86595000  0.02263000  0.88467000  1
  C  C26  1  0.70405000  0.94632000  0.95746000  1
  C  C27  1  0.39217000  0.44632000  0.45746000  1
  C  C28  1  0.01551000  0.69398000  0.19240000  1
  C  C29  1  0.09811000  0.19398000  0.69240000  1
  C  C30  1  0.51699000  0.46968000  0.41654000  1
  C  C31  1  0.59679000  0.96968000  0.91654000  1
  C  C32  1  0.19641000  0.93478000  0.94884000  1
  C  C33  1  0.91997000  0.43478000  0.44884000  1
  C  C34  1  0.15896000  0.90016000  0.97952000  1
  C  C35  1  0.96136000  0.40016000  0.47952000  1
  C  C36  1  0.14573000  0.46333000  0.40717000  1
  C  C37  1  0.98377000  0.96333000  0.90717000  1
  C  C38  1  0.41787000  0.91644000  0.95322000  1
  C  C39  1  0.71247000  0.41644000  0.45322000  1
  C  C40  1  0.80407000  0.52782000  0.32766000  1
  C  C41  1  0.34045000  0.02782000  0.82766000  1
  C  C42  1  0.76037000  0.55324000  0.29702000  1
  C  C43  1  0.38937000  0.05324000  0.79702000  1
  C  C44  1  0.22776000  0.85955000  0.99053000  1
  C  C45  1  0.95736000  0.66933000  0.18075000  1
  C  C46  1  0.92216000  0.35955000  0.49053000  1
  C  C47  1  0.19256000  0.16933000  0.68075000  1
  C  C48  1  0.75862000  0.91909000  0.91941000  1
  C  C49  1  0.40288000  0.41909000  0.41941000  1
  C  C50  1  0.47840000  0.87537000  0.95263000  1
  C  C51  1  0.69360000  0.37537000  0.45263000  1
  C  C52  1  0.52390000  0.44452000  0.37868000  1
  C  C53  1  0.65290000  0.94452000  0.87868000  1
  C  C54  1  0.93874000  0.47319000  0.33777000  1
  C  C55  1  0.25030000  0.97319000  0.83777000  1
  C  C56  1  0.88684000  0.50149000  0.30917000  1
  C  C57  1  0.30250000  0.00149000  0.80917000  1
  C  C58  1  0.15118000  0.75008000  0.05156000  1
  C  C59  1  0.04718000  0.25008000  0.55156000  1
  C  C60  1  0.79726000  0.55156000  0.24992000  1
  C  C61  1  0.40126000  0.05156000  0.74992000  1
  C  C62  1  0.46839000  0.41950000  0.37992000  1
  C  C63  1  0.73219000  0.91950000  0.87992000  1
  C  C64  1  0.09751000  0.76826000  0.02512000  1
  C  C65  1  0.10911000  0.26826000  0.52512000  1
  C  C66  1  0.75835000  0.41749000  0.37481000  1
  C  C67  1  0.44935000  0.91749000  0.87481000  1
  C  C68  1  0.28101000  0.82940000  0.94918000  1
  C  C69  1  0.94041000  0.32940000  0.44918000  1
  C  C70  1  0.00226000  0.63852000  0.13776000  1
  C  C71  1  0.22146000  0.13852000  0.63776000  1
  C  C72  1  0.52560000  0.85419000  0.91201000  1
  C  C73  1  0.70820000  0.35419000  0.41201000  1
  C  C74  1  0.92184000  0.50081000  0.26109000  1
  C  C75  1  0.31626000  0.00081000  0.76109000  1
  C  C76  1  0.87737000  0.52512000  0.23174000  1
  C  C77  1  0.36577000  0.02512000  0.73174000  1
  C  C78  1  0.18639000  0.70298000  0.05324000  1
  C  C79  1  0.05739000  0.20298000  0.55324000  1
  C  C80  1  0.05522000  0.84579000  0.90339000  1
  C  C81  1  0.19560000  0.34579000  0.40339000  1
  C  C82  1  0.74035000  0.37618000  0.37232000  1
  C  C83  1  0.51115000  0.87618000  0.87232000  1
  C  C84  1  0.34844000  0.78871000  0.95961000  1
  C  C85  1  0.90324000  0.28871000  0.45961000  1
  C  C86  1  0.07735000  0.73891000  0.00081000  1
  C  C87  1  0.18293000  0.23891000  0.50081000  1
  C  C88  1  0.94618000  0.61399000  0.12465000  1
  C  C89  1  0.31518000  0.11399000  0.62465000  1
  C  C90  1  0.66830000  0.81839000  0.91401000  1
  C  C91  1  0.59930000  0.31839000  0.41401000  1
  C  C92  1  0.59377000  0.80941000  0.91105000  1
  C  C93  1  0.68577000  0.30941000  0.41105000  1
  C  C94  1  0.27328000  0.41674000  0.30308000  1
  C  C95  1  0.00690000  0.91674000  0.80308000  1
  C  C96  1  0.16811000  0.67234000  0.02782000  1
  C  C97  1  0.13173000  0.17234000  0.52782000  1
  C  C98  1  0.57000000  0.58532000  0.11228000  1
  C  C99  1  0.73240000  0.08532000  0.61228000  1
  C  C100  1  0.81950333  0.78459000  0.90977000  1
  C  C101  1  0.48613667  0.28459000  0.40977000  1
  C  C102  1  0.11167000  0.69083000  0.00149000  1
  C  C103  1  0.19601000  0.19083000  0.50149000  1
  C  C104  1  0.74327000  0.77742000  0.91384000  1
  C  C105  1  0.56547000  0.27742000  0.41384000  1
  C  C106  1  0.12712000  0.80901000  0.87915000  1
  C  C107  1  0.18472000  0.30901000  0.37915000  1
  C  C108  1  0.34404000  0.41707000  0.26765000  1
  C  C109  1  0.97124000  0.91707000  0.76765000  1
  C  C110  1  0.40230000  0.75952000  0.91648000  1
  C  C111  1  0.92170000  0.25952000  0.41648000  1
  C  C112  1  0.69195000  0.45961000  0.21129000  1
  C  C113  1  0.63715000  0.95961000  0.71129000  1
  C  C114  1  0.20143000  0.81778000  0.85082000  1
  C  C115  1  0.12997000  0.31778000  0.35082000  1
  C  C116  1  0.69260000  0.60193000  0.06587000  1
  C  C117  1  0.63960000  0.10193000  0.56587000  1
  C  C118  1  0.99020000  0.58550000  0.08076000  1
  C  C119  1  0.34354000  0.08550000  0.58076000  1
  C  C120  1  0.20290000  0.41014000  0.25286000  1
  C  C121  1  0.13410000  0.91014000  0.75286000  1
  C  C122  1  0.63270000  0.59200000  0.06600000  1
  C  C123  1  0.70930000  0.09200000  0.56600000  1
  C  C124  1  0.88696000  0.74714000  0.91014000  1
  C  C125  1  0.45576000  0.24714000  0.41014000  1
  C  C126  1  0.68122000  0.41648000  0.24048000  1
  C  C127  1  0.66182000  0.91648000  0.74048000  1
  C  C128  1  0.73889000  0.73235000  0.91707000  1
  C  C129  1  0.61169000  0.23235000  0.41707000  1
  C  C130  1  0.12217000  0.76337000  0.88361000  1
  C  C131  1  0.23085000  0.26337000  0.38361000  1
  C  C132  1  0.75062000  0.61533000  0.02263000  1
  C  C133  1  0.61142000  0.11533000  0.52263000  1
  C  C134  1  0.34289000  0.41384000  0.22258000  1
  C  C135  1  0.02069000  0.91384000  0.72258000  1
  C  C136  1  0.08807000  0.66223000  0.97319000  1
  C  C137  1  0.27651000  0.16223000  0.47319000  1
  C  C138  1  0.95204000  0.36164000  0.27314000  1
  C  C139  1  0.41318000  0.86164000  0.77314000  1
  C  C140  1  0.06233000  0.54603000  0.08585000  1
  C  C141  1  0.30579000  0.04603000  0.58585000  1
  C  C142  1  0.78171000  0.49053000  0.14045000  1
  C  C143  1  0.58731000  0.99053000  0.64045000  1
  C  C144  1  0.27071000  0.40977000  0.21541000  1
  C  C145  1  0.10411000  0.90977000  0.71541000  1
  C  C146  1  0.99422000  0.38361000  0.23663000  1
  C  C147  1  0.38554000  0.88361000  0.73663000  1
  C  C148  1  0.76981000  0.44918000  0.17060000  1
  C  C149  1  0.61041000  0.94918000  0.67060000  1
  C  C150  1  0.80998000  0.69692000  0.91674000  1
  C  C151  1  0.57636000  0.19692000  0.41674000  1
  C  C152  1  0.26677000  0.78024000  0.82864000  1
  C  C153  1  0.12435000  0.28024000  0.32864000  1
  C  C154  1  0.49518000  0.41105000  0.19059000  1
  C  C155  1  0.90318000  0.91105000  0.69059000  1
  C  C156  1  0.90699000  0.33412000  0.26410000  1
  C  C157  1  0.49479000  0.83412000  0.76410000  1
  C  C158  1  0.41769000  0.41401000  0.18161000  1
  C  C159  1  0.98669000  0.91401000  0.68161000  1
  C  C160  1  0.18632000  0.72686000  0.86164000  1
  C  C161  1  0.22518000  0.22686000  0.36164000  1
  C  C162  1  0.83222000  0.57626000  0.00370000  1
  C  C163  1  0.58782000  0.07626000  0.50370000  1
  C  C164  1  0.86152000  0.47952000  0.09984000  1
  C  C165  1  0.55912000  0.97952000  0.59984000  1
  C  C166  1  0.56897000  0.45263000  0.12463000  1
  C  C167  1  0.85377000  0.95263000  0.62463000  1
  C  C168  1  0.99373000  0.37915000  0.19099000  1
  C  C169  1  0.43613000  0.87915000  0.69099000  1
  C  C170  1  0.25889000  0.73590000  0.83412000  1
  C  C171  1  0.17109000  0.23590000  0.33412000  1
  C  C172  1  0.53158000  0.62132000  0.94452000  1
  C  C173  1  0.90258000  0.12132000  0.44452000  1
  C  C174  1  0.56239000  0.41201000  0.14581000  1
  C  C175  1  0.87979000  0.91201000  0.64581000  1
  C  C176  1  0.04139000  0.40339000  0.15421000  1
  C  C177  1  0.40101000  0.90339000  0.65421000  1
  C  C178  1  0.89094000  0.59283000  0.96333000  1
  C  C179  1  0.55290000  0.09283000  0.46333000  1
  C  C180  1  0.51333000  0.58346000  0.96968000  1
  C  C181  1  0.93353000  0.08346000  0.46968000  1
  C  C182  1  0.90459000  0.32864000  0.21976000  1
  C  C183  1  0.54701000  0.82864000  0.71976000  1
  C  C184  1  0.27340000  0.49881000  0.04761000  1
  C  C185  1  0.18018000  0.99881000  0.54761000  1
  C  C186  1  0.32416000  0.62519000  0.91749000  1
  C  C187  1  0.13316000  0.12519000  0.41749000  1
  C  C188  1  0.61211000  0.62008000  0.91950000  1
  C  C189  1  0.84831000  0.12008000  0.41950000  1
  C  C190  1  0.62891000  0.45322000  0.08356000  1
  C  C191  1  0.83431000  0.95322000  0.58356000  1
  C  C192  1  0.94775000  0.35082000  0.18222000  1
  C  C193  1  0.51921000  0.85082000  0.68222000  1
  C  C194  1  0.57894000  0.54451000  0.97081000  1
  C  C195  1  0.90574000  0.04451000  0.47081000  1
  C  C196  1  0.85475000  0.44884000  0.06522000  1
  C  C197  1  0.63119000  0.94884000  0.56522000  1
  C  C198  1  0.33849000  0.45746000  0.05368000  1
  C  C199  1  0.15037000  0.95746000  0.55368000  1
  C  C200  1  0.38347000  0.62768000  0.87618000  1
  C  C201  1  0.11267000  0.12768000  0.37618000  1
  C  C202  1  0.32197000  0.41941000  0.08091000  1
  C  C203  1  0.17771000  0.91941000  0.58091000  1
  C  C204  1  0.67803000  0.58059000  0.91909000  1
  C  C205  1  0.82229000  0.08059000  0.41909000  1
  C  C206  1  0.61653000  0.37232000  0.12382000  1
  C  C207  1  0.88733000  0.87232000  0.62382000  1
  C  C208  1  0.66151000  0.54254000  0.94632000  1
  C  C209  1  0.84963000  0.04254000  0.44632000  1
  C  C210  1  0.14525000  0.55116000  0.93478000  1
  C  C211  1  0.36881000  0.05116000  0.43478000  1
  C  C212  1  0.42106000  0.45549000  0.02919000  1
  C  C213  1  0.09426000  0.95549000  0.52919000  1
  C  C214  1  0.05225000  0.64918000  0.81778000  1
  C  C215  1  0.48079000  0.14918000  0.31778000  1
  C  C216  1  0.37109000  0.54678000  0.91644000  1
  C  C217  1  0.16569000  0.04678000  0.41644000  1
  C  C218  1  0.38789000  0.37992000  0.08050000  1
  C  C219  1  0.15169000  0.87992000  0.58050000  1
  C  C220  1  0.67584000  0.37481000  0.08251000  1
  C  C221  1  0.86684000  0.87481000  0.58251000  1
  C  C222  1  0.72660000  0.50119000  0.95239000  1
  C  C223  1  0.81982000  0.00119000  0.45239000  1
  C  C224  1  0.09541000  0.67136000  0.78024000  1
  C  C225  1  0.45299000  0.17136000  0.28024000  1
  C  C226  1  0.48667000  0.41654000  0.03032000  1
  C  C227  1  0.06647000  0.91654000  0.53032000  1
  C  C228  1  0.10906000  0.40717000  0.03667000  1
  C  C229  1  0.44710000  0.90717000  0.53667000  1
  C  C230  1  0.95861000  0.59661000  0.84579000  1
  C  C231  1  0.59899000  0.09661000  0.34579000  1
  C  C232  1  0.43761000  0.58799000  0.85419000  1
  C  C233  1  0.12021000  0.08799000  0.35419000  1
  C  C234  1  0.46842000  0.37868000  0.05548000  1
  C  C235  1  0.09742000  0.87868000  0.55548000  1
  C  C236  1  0.74111000  0.26410000  0.16588000  1
  C  C237  1  0.82891000  0.76410000  0.66588000  1
  C  C238  1  0.00627000  0.62085000  0.80901000  1
  C  C239  1  0.56387000  0.12085000  0.30901000  1
  C  C240  1  0.43103000  0.54737000  0.87537000  1
  C  C241  1  0.14623000  0.04737000  0.37537000  1
  C  C242  1  0.13848000  0.52048000  0.90016000  1
  C  C243  1  0.44088000  0.02048000  0.40016000  1
  C  C244  1  0.16778000  0.42374000  0.99630000  1
  C  C245  1  0.41218000  0.92374000  0.49630000  1
  C  C246  1  0.81368000  0.27314000  0.13836000  1
  C  C247  1  0.77482000  0.77314000  0.63836000  1
  C  C248  1  0.58231000  0.58599000  0.81839000  1
  C  C249  1  0.01331000  0.08599000  0.31839000  1
  C  C250  1  0.09301000  0.66588000  0.73590000  1
  C  C251  1  0.50521000  0.16588000  0.23590000  1
  C  C252  1  0.50482000  0.58895000  0.80941000  1
  C  C253  1  0.09682000  0.08895000  0.30941000  1
  C  C254  1  0.73323000  0.21976000  0.17136000  1
  C  C255  1  0.87565000  0.71976000  0.67136000  1
  C  C256  1  0.19002000  0.30308000  0.08326000  1
  C  C257  1  0.42364000  0.80308000  0.58326000  1
  C  C258  1  0.23019000  0.55082000  0.82940000  1
  C  C259  1  0.38959000  0.05082000  0.32940000  1
  C  C260  1  0.00578000  0.61639000  0.76337000  1
  C  C261  1  0.61446000  0.11639000  0.26337000  1
  C  C262  1  0.72929000  0.59023000  0.78459000  1
  C  C263  1  0.89589000  0.09023000  0.28459000  1
  C  C264  1  0.21829000  0.50947000  0.85955000  1
  C  C265  1  0.41269000  0.00947000  0.35955000  1
  C  C266  1  0.93767000  0.45397000  0.91415000  1
  C  C267  1  0.69421000  0.95397000  0.41415000  1
  C  C268  1  0.04796000  0.63836000  0.72686000  1
  C  C269  1  0.58682000  0.13836000  0.22686000  1
  C  C270  1  0.91193000  0.33777000  0.02681000  1
  C  C271  1  0.72349000  0.83777000  0.52681000  1
  C  C272  1  0.65711000  0.58616000  0.77742000  1
  C  C273  1  0.97931000  0.08616000  0.27742000  1
  C  C274  1  0.24938000  0.38467000  0.97737000  1
  C  C275  1  0.38858000  0.88467000  0.47737000  1
  C  C276  1  0.87783000  0.23663000  0.11639000  1
  C  C277  1  0.76915000  0.73663000  0.61639000  1
  C  C278  1  0.26111000  0.26765000  0.08293000  1
  C  C279  1  0.38831000  0.76765000  0.58293000  1
  C  C280  1  0.31878000  0.58352000  0.75952000  1
  C  C281  1  0.33818000  0.08352000  0.25952000  1
  C  C282  1  0.11304000  0.25286000  0.08986000  1
  C  C283  1  0.54424000  0.75286000  0.58986000  1
  C  C284  1  0.36730000  0.40800000  0.93400000  1
  C  C285  1  0.29070000  0.90800000  0.43400000  1
  C  C286  1  0.79710000  0.58986000  0.74714000  1
  C  C287  1  0.86590000  0.08986000  0.24714000  1
  C  C288  1  0.00980000  0.41450000  0.91924000  1
  C  C289  1  0.65646000  0.91450000  0.41924000  1
  C  C290  1  0.30740000  0.39807000  0.93413000  1
  C  C291  1  0.36040000  0.89807000  0.43413000  1
  C  C292  1  0.79857000  0.18222000  0.14918000  1
  C  C293  1  0.87003000  0.68222000  0.64918000  1
  C  C294  1  0.30805000  0.54039000  0.78871000  1
  C  C295  1  0.36285000  0.04039000  0.28871000  1
  C  C296  1  0.59770000  0.24048000  0.08352000  1
  C  C297  1  0.07830000  0.74048000  0.58352000  1
  C  C298  1  0.65596000  0.58293000  0.73235000  1
  C  C299  1  0.02876000  0.08293000  0.23235000  1
  C  C300  1  0.87288000  0.19099000  0.12085000  1
  C  C301  1  0.81528000  0.69099000  0.62085000  1
  C  C302  1  0.25673000  0.22258000  0.08616000  1
  C  C303  1  0.43453000  0.72258000  0.58616000  1
  C  C304  1  0.88833000  0.30917000  0.99851000  1
  C  C305  1  0.80399000  0.80917000  0.49851000  1
  C  C306  1  0.18049667  0.21541000  0.09023000  1
  C  C307  1  0.51386333  0.71541000  0.59023000  1
  C  C308  1  0.43000000  0.41468000  0.88772000  1
  C  C309  1  0.26760000  0.91468000  0.38772000  1
  C  C310  1  0.83189000  0.32766000  0.97218000  1
  C  C311  1  0.86827000  0.82766000  0.47218000  1
  C  C312  1  0.72672000  0.58326000  0.69692000  1
  C  C313  1  0.99310000  0.08326000  0.19692000  1
  C  C314  1  0.40623000  0.19059000  0.08895000  1
  C  C315  1  0.31423000  0.69059000  0.58895000  1
  C  C316  1  0.33170000  0.18161000  0.08599000  1
  C  C317  1  0.40070000  0.68161000  0.58599000  1
  C  C318  1  0.05382000  0.38601000  0.87535000  1
  C  C319  1  0.68482000  0.88601000  0.37535000  1
  C  C320  1  0.92265000  0.26109000  0.99919000  1
  C  C321  1  0.81707000  0.76109000  0.49919000  1
  C  C322  1  0.65156000  0.21129000  0.04039000  1
  C  C323  1  0.09676000  0.71129000  0.54039000  1
  C  C324  1  0.25965000  0.62382000  0.62768000  1
  C  C325  1  0.48885000  0.12382000  0.12768000  1
  C  C326  1  0.94478000  0.15421000  0.09661000  1
  C  C327  1  0.80440000  0.65421000  0.59661000  1
  C  C328  1  0.81361000  0.29702000  0.94676000  1
  C  C329  1  0.94261000  0.79702000  0.44676000  1
  C  C330  1  0.12263000  0.47488000  0.76826000  1
  C  C331  1  0.63423000  0.97488000  0.26826000  1
  C  C332  1  0.07816000  0.49919000  0.73891000  1
  C  C333  1  0.68374000  0.99919000  0.23891000  1
  C  C334  1  0.47440000  0.14581000  0.08799000  1
  C  C335  1  0.29180000  0.64581000  0.58799000  1
  C  C336  1  0.99774000  0.36148000  0.86224000  1
  C  C337  1  0.77854000  0.86148000  0.36224000  1
  C  C338  1  0.71899000  0.17060000  0.05082000  1
  C  C339  1  0.05959000  0.67060000  0.55082000  1
  C  C340  1  0.24165000  0.58251000  0.62519000  1
  C  C341  1  0.55065000  0.08251000  0.12519000  1
  C  C342  1  0.90249000  0.23174000  0.97488000  1
  C  C343  1  0.89089000  0.73174000  0.47488000  1
  C  C344  1  0.53161000  0.58050000  0.62008000  1
  C  C345  1  0.26781000  0.08050000  0.12008000  1
  C  C346  1  0.20274000  0.44844000  0.75008000  1
  C  C347  1  0.59874000  0.94844000  0.25008000  1
  C  C348  1  0.84882000  0.24992000  0.94844000  1
  C  C349  1  0.95282000  0.74992000  0.44844000  1
  C  C350  1  0.11316000  0.49851000  0.69083000  1
  C  C351  1  0.69750000  0.99851000  0.19083000  1
  C  C352  1  0.06126000  0.52681000  0.66223000  1
  C  C353  1  0.74970000  0.02681000  0.16223000  1
  C  C354  1  0.47610000  0.55548000  0.62132000  1
  C  C355  1  0.34710000  0.05548000  0.12132000  1
  C  C356  1  0.52160000  0.12463000  0.04737000  1
  C  C357  1  0.30640000  0.62463000  0.54737000  1
  C  C358  1  0.24138000  0.08091000  0.08059000  1
  C  C359  1  0.59712000  0.58091000  0.58059000  1
  C  C360  1  0.04264000  0.33067000  0.81925000  1
  C  C361  1  0.77224000  0.14045000  0.00947000  1
  C  C362  1  0.80744000  0.83067000  0.31925000  1
  C  C363  1  0.07784000  0.64045000  0.50947000  1
  C  C364  1  0.23963000  0.44676000  0.70298000  1
  C  C365  1  0.61063000  0.94676000  0.20298000  1
  C  C366  1  0.19593000  0.47218000  0.67234000  1
  C  C367  1  0.65955000  0.97218000  0.17234000  1
  C  C368  1  0.58213000  0.08356000  0.04678000  1
  C  C369  1  0.28753000  0.58356000  0.54678000  1
  C  C370  1  0.85427000  0.53667000  0.59283000  1
  C  C371  1  0.01623000  0.03667000  0.09283000  1
  C  C372  1  0.84104000  0.09984000  0.02048000  1
  C  C373  1  0.03864000  0.59984000  0.52048000  1
  C  C374  1  0.80359000  0.06522000  0.05116000  1
  C  C375  1  0.08003000  0.56522000  0.55116000  1
  C  C376  1  0.48301000  0.53032000  0.58346000  1
  C  C377  1  0.40321000  0.03032000  0.08346000  1
  C  C378  1  0.98449000  0.30602000  0.80760000  1
  C  C379  1  0.90189000  0.80602000  0.30760000  1
  C  C380  1  0.29595000  0.05368000  0.04254000  1
  C  C381  1  0.60783000  0.55368000  0.54254000  1
  C  C382  1  0.77325000  0.47737000  0.61533000  1
  C  C383  1  0.13405000  0.97737000  0.11533000  1
  C  C384  1  0.54975000  0.52919000  0.54451000  1
  C  C385  1  0.37655000  0.02919000  0.04451000  1
  C  C386  1  0.83592000  0.49630000  0.57626000  1
  C  C387  1  0.09152000  0.99630000  0.07626000  1
  C  C388  1  0.27221000  0.04761000  0.00119000  1
  C  C389  1  0.67899000  0.54761000  0.50119000  1
  C  C390  1  0.10836000  0.08585000  0.95397000  1
  C  C391  1  0.85182000  0.58585000  0.45397000  1
  C  C392  1  0.75847000  0.43413000  0.60193000  1
  C  C393  1  0.20547000  0.93413000  0.10193000  1
  C  C394  1  0.65532000  0.11228000  0.91468000  1
  C  C395  1  0.31772000  0.61228000  0.41468000  1
  C  C396  1  0.69870000  0.43400000  0.59200000  1
  C  C397  1  0.27530000  0.93400000  0.09200000  1
  C  C398  1  0.12669000  0.18075000  0.83067000  1
  C  C399  1  0.86189000  0.68075000  0.33067000  1
  C  C400  1  0.06017000  0.12465000  0.88601000  1
  C  C401  1  0.92917000  0.62465000  0.38601000  1
  C  C402  1  0.07096000  0.41924000  0.58550000  1
  C  C403  1  0.92430000  0.91924000  0.08550000  1
  C  C404  1  0.20791000  0.30760000  0.69398000  1
  C  C405  1  0.79051000  0.80760000  0.19398000  1
  C  C406  1  0.14002000  0.36224000  0.63852000  1
  C  C407  1  0.85922000  0.86224000  0.13852000  1
  H  H408  1  0.80000000  0.78320000  0.21680000  1
  H  H409  1  0.80000000  0.71680000  0.28320000  1
  H  H410  1  0.20000000  0.28320000  0.71680000  1
  H  H411  1  0.20000000  0.21680000  0.78320000  1
  H  H412  1  0.97810000  0.57220000  0.42680000  1
  H  H413  1  0.02290000  0.07220000  0.92680000  1
  H  H414  1  0.19780000  0.92050000  0.07530000  1
  H  H415  1  0.80640000  0.42050000  0.57530000  1
  H  H416  1  0.38750000  0.88980000  0.09940000  1
  H  H417  1  0.62330000  0.38980000  0.59940000  1
  H  H418  1  0.30100000  0.54820000  0.43700000  1
  H  H419  1  0.71380000  0.04820000  0.93700000  1
  H  H420  1  0.98380000  0.62020000  0.36260000  1
  H  H421  1  0.03340000  0.12020000  0.86260000  1
  H  H422  1  0.91670000  0.67520000  0.30720000  1
  H  H423  1  0.10090000  0.17520000  0.80720000  1
  H  H424  1  0.83390000  0.85640000  0.11500000  1
  H  H425  1  0.19470000  0.35640000  0.61500000  1
  H  H426  1  0.44390000  0.48860000  0.48140000  1
  H  H427  1  0.58610000  0.98860000  0.98140000  1
  H  H428  1  0.76970000  0.79690000  0.17110000  1
  H  H429  1  0.26230000  0.29690000  0.67110000  1
  H  H430  1  0.11160000  0.52860000  0.43440000  1
  H  H431  1  0.92540000  0.02860000  0.93440000  1
  H  H432  1  0.32090000  0.86270000  0.09990000  1
  H  H433  1  0.71650000  0.36270000  0.59990000  1
  H  H434  1  0.23770000  0.58780000  0.37200000  1
  H  H435  1  0.80250000  0.08780000  0.87200000  1
  H  H436  1  0.79410000  0.66470000  0.29050000  1
  H  H437  1  0.25070000  0.16470000  0.79050000  1
  H  H438  1  0.86580000  0.61140000  0.34220000  1
  H  H439  1  0.18060000  0.11140000  0.84220000  1
  H  H440  1  0.93420000  0.55540000  0.39420000  1
  H  H441  1  0.11620000  0.05540000  0.89420000  1
  H  H442  1  0.18760000  0.49390000  0.45030000  1
  H  H443  1  0.86820000  0.99390000  0.95030000  1
  H  H444  1  0.97860000  0.84970000  0.09350000  1
  H  H445  1  0.07820000  0.34970000  0.59350000  1
  H  H446  1  0.91220000  0.79260000  0.15020000  1
  H  H447  1  0.14500000  0.29260000  0.65020000  1
  H  H448  1  0.36980000  0.88140000  0.05220000  1
  H  H449  1  0.98320000  0.71680000  0.21680000  1
  H  H450  1  0.69660000  0.38140000  0.55220000  1
  H  H451  1  0.08320000  0.21680000  0.71680000  1
  H  H452  1  0.34980000  0.54840000  0.38380000  1
  H  H453  1  0.71800000  0.04840000  0.88380000  1
  H  H454  1  0.12090000  0.91540000  0.00860000  1
  H  H455  1  0.95510000  0.41540000  0.50860000  1
  H  H456  1  0.38540000  0.93030000  0.98230000  1
  H  H457  1  0.70200000  0.43030000  0.48230000  1
  H  H458  1  0.55660000  0.48580000  0.41600000  1
  H  H459  1  0.54160000  0.98580000  0.91600000  1
  H  H460  1  0.20540000  0.52930000  0.35710000  1
  H  H461  1  0.90820000  0.02930000  0.85710000  1
  H  H462  1  0.70480000  0.57180000  0.30880000  1
  H  H463  1  0.41460000  0.07180000  0.80880000  1
  H  H464  1  0.26390000  0.87200000  0.00300000  1
  H  H465  1  0.86110000  0.37200000  0.50300000  1
  H  H466  1  0.28050000  0.49840000  0.37600000  1
  H  H467  1  0.84510000  0.99840000  0.87600000  1
  H  H468  1  0.04120000  0.70950000  0.16470000  1
  H  H469  1  0.05920000  0.67110000  0.20310000  1
  H  H470  1  0.08460000  0.20950000  0.66470000  1
  H  H471  1  0.06660000  0.17110000  0.70310000  1
  H  H472  1  0.90810000  0.69280000  0.17520000  1
  H  H473  1  0.22390000  0.19280000  0.67520000  1
  H  H474  1  0.93760000  0.65020000  0.20740000  1
  H  H475  1  0.20480000  0.15020000  0.70740000  1
  H  H476  1  0.20150000  0.84030000  0.01490000  1
  H  H477  1  0.94330000  0.34030000  0.51490000  1
  H  H478  1  0.12620000  0.88840000  0.96380000  1
  H  H479  1  0.02160000  0.38840000  0.46380000  1
  H  H480  1  0.48720000  0.86170000  0.98090000  1
  H  H481  1  0.67020000  0.36170000  0.48090000  1
  H  H482  1  0.16430000  0.77020000  0.06900000  1
  H  H483  1  0.99650000  0.27020000  0.56900000  1
  H  H484  1  0.07450000  0.80080000  0.02360000  1
  H  H485  1  0.10110000  0.30080000  0.52360000  1
  H  H486  1  0.76670000  0.56900000  0.22980000  1
  H  H487  1  0.43450000  0.06900000  0.72980000  1
  H  H488  1  0.56770000  0.44450000  0.35130000  1
  H  H489  1  0.63650000  0.94450000  0.85130000  1
  H  H490  1  0.65440000  0.83610000  0.94270000  1
  H  H491  1  0.78120000  0.43190000  0.34690000  1
  H  H492  1  0.56680000  0.33610000  0.44270000  1
  H  H493  1  0.44000000  0.93190000  0.84690000  1
  H  H494  1  0.30770000  0.84870000  0.92490000  1
  H  H495  1  0.91870000  0.34870000  0.42490000  1
  H  H496  1  0.38460000  0.80040000  0.97280000  1
  H  H497  1  0.84220000  0.30040000  0.47280000  1
  H  H498  1  0.02280000  0.65780000  0.11140000  1
  H  H499  1  0.20800000  0.15780000  0.61140000  1
  H  H500  1  0.22340000  0.69120000  0.07180000  1
  H  H501  1  0.01360000  0.19120000  0.57180000  1
  H  H502  1  0.05110000  0.61500000  0.14360000  1
  H  H503  1  0.19030000  0.11500000  0.64360000  1
  H  H504  1  0.89600000  0.63740000  0.12020000  1
  H  H505  1  0.34640000  0.13740000  0.62020000  1
  H  H506  1  0.47500000  0.40230000  0.35350000  1
  H  H507  1  0.76920000  0.90230000  0.85350000  1
  H  H508  1  0.24450000  0.81750000  0.93650000  1
  H  H509  1  0.00150000  0.31750000  0.43650000  1
  H  H510  1  0.27490000  0.41880000  0.33400000  1
  H  H511  1  0.97230000  0.91880000  0.83400000  1
  H  H512  1  0.32200000  0.76880000  0.98320000  1
  H  H513  1  0.92600000  0.26880000  0.48320000  1
  H  H514  1  0.92790000  0.59350000  0.15030000  1
  H  H515  1  0.32830000  0.09350000  0.65030000  1
  H  H516  1  0.57920000  0.59990000  0.13730000  1
  H  H517  1  0.68360000  0.09990000  0.63730000  1
  H  H518  1  0.03920000  0.75150000  0.98310000  1
  H  H519  1  0.22620000  0.25150000  0.48310000  1
  H  H520  1  0.97770000  0.48310000  0.24850000  1
  H  H521  1  0.29070000  0.98310000  0.74850000  1
  H  H522  1  0.57460000  0.78970000  0.93730000  1
  H  H523  1  0.69840000  0.28970000  0.43730000  1
  H  H524  1  0.68540000  0.83870000  0.88770000  1
  H  H525  1  0.58820000  0.33870000  0.38770000  1
  H  H526  1  0.90190000  0.52360000  0.19920000  1
  H  H527  1  0.37530000  0.02360000  0.69920000  1
  H  H528  1  0.82560000  0.81510000  0.90670000  1
  H  H529  1  0.45260000  0.31510000  0.40670000  1
  H  H530  1  0.67450000  0.62800000  0.08780000  1
  H  H531  1  0.60970000  0.12800000  0.58780000  1
  H  H532  1  0.69480000  0.48320000  0.23120000  1
  H  H533  1  0.59080000  0.98320000  0.73120000  1
  H  H534  1  0.51310000  0.59940000  0.11020000  1
  H  H535  1  0.77730000  0.09940000  0.61020000  1
  H  H536  1  0.75030000  0.36300000  0.34300000  1
  H  H537  1  0.54370000  0.86300000  0.84300000  1
  H  H538  1  0.39270000  0.41950000  0.27430000  1
  H  H539  1  0.91350000  0.91950000  0.77430000  1
  H  H540  1  0.62670000  0.42410000  0.26350000  1
  H  H541  1  0.68570000  0.92410000  0.76350000  1
  H  H542  1  0.60550000  0.79260000  0.88200000  1
  H  H543  1  0.78360000  0.51490000  0.15970000  1
  H  H544  1  0.71990000  0.29260000  0.38200000  1
  H  H545  1  0.54180000  0.01490000  0.65970000  1
  H  H546  1  0.64260000  0.47280000  0.19960000  1
  H  H547  1  0.68500000  0.97280000  0.69960000  1
  H  H548  1  0.76530000  0.64290000  0.02930000  1
  H  H549  1  0.56250000  0.14290000  0.52930000  1
  H  H550  1  0.42330000  0.77970000  0.89170000  1
  H  H551  1  0.90530000  0.27970000  0.39170000  1
  H  H552  1  0.57800000  0.55220000  0.11860000  1
  H  H553  1  0.75120000  0.05220000  0.61860000  1
  H  H554  1  0.95370000  0.36520000  0.30380000  1
  H  H555  1  0.37730000  0.86520000  0.80380000  1
  H  H556  1  0.60180000  0.61620000  0.04840000  1
  H  H557  1  0.73360000  0.11620000  0.54840000  1
  H  H558  1  0.72520000  0.40620000  0.25620000  1
  H  H559  1  0.61240000  0.90620000  0.75620000  1
  H  H560  1  0.01040000  0.60580000  0.05540000  1
  H  H561  1  0.32840000  0.10580000  0.55540000  1
  H  H562  1  0.44920000  0.73650000  0.92410000  1
  H  H563  1  0.89020000  0.23650000  0.42410000  1
  H  H564  1  0.93890000  0.75270000  0.90770000  1
  H  H565  1  0.40070000  0.25270000  0.40770000  1
  H  H566  1  0.07240000  0.75740000  0.90260000  1
  H  H567  1  0.26760000  0.25740000  0.40260000  1
  H  H568  1  0.15340000  0.40770000  0.24730000  1
  H  H569  1  0.19160000  0.90770000  0.74730000  1
  H  H570  1  0.72690000  0.57530000  0.07950000  1
  H  H571  1  0.61830000  0.07530000  0.57950000  1
  H  H572  1  0.36860000  0.74380000  0.90620000  1
  H  H573  1  0.98140000  0.24380000  0.40620000  1
  H  H574  1  0.48810000  0.43730000  0.21030000  1
  H  H575  1  0.86430000  0.93730000  0.71030000  1
  H  H576  1  0.94970000  0.57320000  0.07220000  1
  H  H577  1  0.40490000  0.07320000  0.57220000  1
  H  H578  1  0.68780000  0.72570000  0.91950000  1
  H  H579  1  0.02500000  0.40260000  0.24260000  1
  H  H580  1  0.66700000  0.22570000  0.41950000  1
  H  H581  1  0.32980000  0.90260000  0.74260000  1
  H  H582  1  0.73310000  0.50300000  0.12800000  1
  H  H583  1  0.63590000  0.00300000  0.62800000  1
  H  H584  1  0.72110000  0.62400000  0.99840000  1
  H  H585  1  0.65650000  0.12400000  0.49840000  1
  H  H586  1  0.53190000  0.48090000  0.13830000  1
  H  H587  1  0.84890000  0.98090000  0.63830000  1
  H  H588  1  0.81900000  0.43650000  0.18250000  1
  H  H589  1  0.56200000  0.93650000  0.68250000  1
  H  H590  1  0.68500000  0.39170000  0.22030000  1
  H  H591  1  0.70300000  0.89170000  0.72030000  1
  H  H592  1  0.65080000  0.56300000  0.04820000  1
  H  H593  1  0.73800000  0.06300000  0.54820000  1
  H  H594  1  0.87740000  0.31870000  0.28890000  1
  H  H595  1  0.51500000  0.81870000  0.78890000  1
  H  H596  1  0.40290000  0.44270000  0.16390000  1
  H  H597  1  0.99050000  0.94270000  0.66390000  1
  H  H598  1  0.31710000  0.78560000  0.80960000  1
  H  H599  1  0.08770000  0.28560000  0.30960000  1
  H  H600  1  0.85980000  0.56560000  0.02860000  1
  H  H601  1  0.54600000  0.06560000  0.52860000  1
  H  H602  1  0.48780000  0.64870000  0.94450000  1
  H  H603  1  0.87050000  0.50860000  0.08460000  1
  H  H604  1  0.91900000  0.14870000  0.44450000  1
  H  H605  1  0.53630000  0.00860000  0.58460000  1
  H  H606  1  0.26770000  0.40670000  0.18490000  1
  H  H607  1  0.14070000  0.90670000  0.68490000  1
  H  H608  1  0.51250000  0.38200000  0.20740000  1
  H  H609  1  0.89810000  0.88200000  0.70740000  1
  H  H610  1  0.28690000  0.65310000  0.93190000  1
  H  H611  1  0.12810000  0.15310000  0.43190000  1
  H  H612  1  0.80630000  0.66600000  0.91880000  1
  H  H613  1  0.60890000  0.16600000  0.41880000  1
  H  H614  1  0.76740000  0.42490000  0.15130000  1
  H  H615  1  0.65640000  0.92490000  0.65130000  1
  H  H616  1  0.91000000  0.46380000  0.11160000  1
  H  H617  1  0.51460000  0.96380000  0.61160000  1
  H  H618  1  0.45760000  0.58400000  0.98580000  1
  H  H619  1  0.97260000  0.08400000  0.48580000  1
  H  H620  1  0.18110000  0.69620000  0.86520000  1
  H  H621  1  0.25750000  0.19620000  0.36520000  1
  H  H622  1  0.63230000  0.48230000  0.06970000  1
  H  H623  1  0.81570000  0.98230000  0.56970000  1
  H  H624  1  0.42690000  0.38770000  0.16130000  1
  H  H625  1  0.02410000  0.88770000  0.66130000  1
  H  H626  1  0.62270000  0.64650000  0.90230000  1
  H  H627  1  0.82850000  0.14650000  0.40230000  1
  H  H628  1  0.81850000  0.54970000  0.99390000  1
  H  H629  1  0.63790000  0.04970000  0.49390000  1
  H  H630  1  0.30390000  0.71110000  0.81870000  1
  H  H631  1  0.16630000  0.21110000  0.31870000  1
  H  H632  1  0.87330000  0.30960000  0.21440000  1
  H  H633  1  0.60270000  0.80960000  0.71440000  1
  H  H634  1  0.38670000  0.65700000  0.86300000  1
  H  H635  1  0.09330000  0.15700000  0.36300000  1
  H  H636  1  0.56750000  0.51860000  0.98860000  1
  H  H637  1  0.92530000  0.01860000  0.48860000  1
  H  H638  1  0.43250000  0.48140000  0.01140000  1
  H  H639  1  0.07470000  0.98140000  0.51140000  1
  H  H640  1  0.61330000  0.34300000  0.13700000  1
  H  H641  1  0.90670000  0.84300000  0.63700000  1
  H  H642  1  0.12670000  0.69040000  0.78560000  1
  H  H643  1  0.39730000  0.19040000  0.28560000  1
  H  H644  1  0.69610000  0.28890000  0.18130000  1
  H  H645  1  0.83370000  0.78890000  0.68130000  1
  H  H646  1  0.18150000  0.45030000  0.00610000  1
  H  H647  1  0.36210000  0.95030000  0.50610000  1
  H  H648  1  0.37730000  0.35350000  0.09770000  1
  H  H649  1  0.17150000  0.85350000  0.59770000  1
  H  H650  1  0.57310000  0.61230000  0.83870000  1
  H  H651  1  0.97590000  0.11230000  0.33870000  1
  H  H652  1  0.36770000  0.51770000  0.93030000  1
  H  H653  1  0.18430000  0.01770000  0.43030000  1
  H  H654  1  0.81890000  0.30380000  0.13480000  1
  H  H655  1  0.74250000  0.80380000  0.63480000  1
  H  H656  1  0.54240000  0.41600000  0.01420000  1
  H  H657  1  0.02740000  0.91600000  0.51420000  1
  H  H658  1  0.09000000  0.53620000  0.88840000  1
  H  H659  1  0.48540000  0.03620000  0.38840000  1
  H  H660  1  0.23260000  0.57510000  0.84870000  1
  H  H661  1  0.34360000  0.07510000  0.34870000  1
  H  H662  1  0.19370000  0.33400000  0.08120000  1
  H  H663  1  0.39110000  0.83400000  0.58120000  1
  H  H664  1  0.71310000  0.34690000  0.06810000  1
  H  H665  1  0.87190000  0.84690000  0.56810000  1
  H  H666  1  0.48750000  0.61800000  0.79260000  1
  H  H667  1  0.10190000  0.11800000  0.29260000  1
  H  H668  1  0.73230000  0.59330000  0.81510000  1
  H  H669  1  0.85930000  0.09330000  0.31510000  1
  H  H670  1  0.12950000  0.49140000  0.91540000  1
  H  H671  1  0.51220000  0.35130000  0.05550000  1
  H  H672  1  0.46370000  0.99140000  0.41540000  1
  H  H673  1  0.08100000  0.85130000  0.55550000  1
  H  H674  1  0.14020000  0.43440000  0.97140000  1
  H  H675  1  0.45400000  0.93440000  0.47140000  1
  H  H676  1  0.68290000  0.21440000  0.19040000  1
  H  H677  1  0.91230000  0.71440000  0.69040000  1
  H  H678  1  0.59710000  0.55730000  0.83610000  1
  H  H679  1  0.00950000  0.05730000  0.33610000  1
  H  H680  1  0.12260000  0.68130000  0.71110000  1
  H  H681  1  0.48500000  0.18130000  0.21110000  1
  H  H682  1  0.34920000  0.43700000  0.95180000  1
  H  H683  1  0.26200000  0.93700000  0.45180000  1
  H  H684  1  0.31500000  0.60830000  0.77970000  1
  H  H685  1  0.29700000  0.10830000  0.27970000  1
  H  H686  1  0.18100000  0.56350000  0.81750000  1
  H  H687  1  0.43800000  0.06350000  0.31750000  1
  H  H688  1  0.46810000  0.51910000  0.86170000  1
  H  H689  1  0.15110000  0.01910000  0.36170000  1
  H  H690  1  0.27890000  0.37600000  0.00160000  1
  H  H691  1  0.34350000  0.87600000  0.50160000  1
  H  H692  1  0.26690000  0.49700000  0.87200000  1
  H  H693  1  0.36410000  0.99700000  0.37200000  1
  H  H694  1  0.97500000  0.59740000  0.75740000  1
  H  H695  1  0.31220000  0.27430000  0.08050000  1
  H  H696  1  0.67020000  0.09740000  0.25740000  1
  H  H697  1  0.33300000  0.77430000  0.58050000  1
  H  H698  1  0.05030000  0.42680000  0.92780000  1
  H  H699  1  0.59510000  0.92680000  0.42780000  1
  H  H700  1  0.51190000  0.56270000  0.78970000  1
  H  H701  1  0.13570000  0.06270000  0.28970000  1
  H  H702  1  0.63140000  0.25620000  0.09380000  1
  H  H703  1  0.01860000  0.75620000  0.59380000  1
  H  H704  1  0.27310000  0.42470000  0.92050000  1
  H  H705  1  0.38170000  0.92470000  0.42050000  1
  H  H706  1  0.84660000  0.59230000  0.75270000  1
  H  H707  1  0.80840000  0.09230000  0.25270000  1
  H  H708  1  0.92760000  0.24260000  0.09740000  1
  H  H709  1  0.73240000  0.74260000  0.59740000  1
  H  H710  1  0.06110000  0.24730000  0.09230000  1
  H  H711  1  0.59930000  0.74730000  0.59230000  1
  H  H712  1  0.55080000  0.26350000  0.07590000  1
  H  H713  1  0.10980000  0.76350000  0.57590000  1
  H  H714  1  0.98960000  0.39420000  0.94460000  1
  H  H715  1  0.67160000  0.89420000  0.44460000  1
  H  H716  1  0.27480000  0.59380000  0.74380000  1
  H  H717  1  0.38760000  0.09380000  0.24380000  1
  H  H718  1  0.39820000  0.38380000  0.95160000  1
  H  H719  1  0.26640000  0.88380000  0.45160000  1
  H  H720  1  0.04630000  0.63480000  0.69620000  1
  H  H721  1  0.62270000  0.13480000  0.19620000  1
  H  H722  1  0.42200000  0.44780000  0.88140000  1
  H  H723  1  0.24880000  0.94780000  0.38140000  1
  H  H724  1  0.57670000  0.22030000  0.10830000  1
  H  H725  1  0.09470000  0.72030000  0.60830000  1
  H  H726  1  0.23470000  0.35710000  0.97070000  1
  H  H727  1  0.43750000  0.85710000  0.47070000  1
  H  H728  1  0.35740000  0.52720000  0.80040000  1
  H  H729  1  0.31500000  0.02720000  0.30040000  1
  H  H730  1  0.21640000  0.48510000  0.84030000  1
  H  H731  1  0.39450000  0.20740000  0.11800000  1
  H  H732  1  0.45820000  0.98510000  0.34030000  1
  H  H733  1  0.28010000  0.70740000  0.61800000  1
  H  H734  1  0.37330000  0.57590000  0.73650000  1
  H  H735  1  0.31430000  0.07590000  0.23650000  1
  H  H736  1  0.60730000  0.58050000  0.72570000  1
  H  H737  1  0.08650000  0.08050000  0.22570000  1
  H  H738  1  0.24970000  0.63700000  0.65700000  1
  H  H739  1  0.45630000  0.13700000  0.15700000  1
  H  H740  1  0.48690000  0.40060000  0.88980000  1
  H  H741  1  0.22270000  0.90060000  0.38980000  1
  H  H742  1  0.30520000  0.51680000  0.76880000  1
  H  H743  1  0.40920000  0.01680000  0.26880000  1
  H  H744  1  0.32550000  0.37200000  0.91220000  1
  H  H745  1  0.39030000  0.87200000  0.41220000  1
  H  H746  1  0.17440000  0.18490000  0.09330000  1
  H  H747  1  0.54740000  0.68490000  0.59330000  1
  H  H748  1  0.09810000  0.47640000  0.80080000  1
  H  H749  1  0.62470000  0.97640000  0.30080000  1
  H  H750  1  0.31460000  0.16130000  0.11230000  1
  H  H751  1  0.41180000  0.66130000  0.61230000  1
  H  H752  1  0.42540000  0.21030000  0.06270000  1
  H  H753  1  0.30160000  0.71030000  0.56270000  1
  H  H754  1  0.02230000  0.51690000  0.75150000  1
  H  H755  1  0.70930000  0.01690000  0.25150000  1
  H  H756  1  0.96080000  0.24850000  0.01690000  1
  H  H757  1  0.77380000  0.74850000  0.51690000  1
  H  H758  1  0.42080000  0.40010000  0.86270000  1
  H  H759  1  0.31640000  0.90010000  0.36270000  1
  H  H760  1  0.07210000  0.40650000  0.84970000  1
  H  H761  1  0.67170000  0.90650000  0.34970000  1
  H  H762  1  0.67800000  0.23120000  0.01680000  1
  H  H763  1  0.07400000  0.73120000  0.51680000  1
  H  H764  1  0.72510000  0.58120000  0.66600000  1
  H  H765  1  0.02770000  0.08120000  0.16600000  1
  H  H766  1  0.75550000  0.18250000  0.06350000  1
  H  H767  1  0.99850000  0.68250000  0.56350000  1
  H  H768  1  0.52500000  0.59770000  0.64650000  1
  H  H769  1  0.23080000  0.09770000  0.14650000  1
  H  H770  1  0.10400000  0.36260000  0.87980000  1
  H  H771  1  0.65360000  0.86260000  0.37980000  1
  H  H772  1  0.94890000  0.38500000  0.85640000  1
  H  H773  1  0.80970000  0.88500000  0.35640000  1
  H  H774  1  0.77660000  0.30880000  0.92820000  1
  H  H775  1  0.98640000  0.80880000  0.42820000  1
  H  H776  1  0.97720000  0.34220000  0.88860000  1
  H  H777  1  0.79200000  0.84220000  0.38860000  1
  H  H778  1  0.61540000  0.19960000  0.02720000  1
  H  H779  1  0.15780000  0.69960000  0.52720000  1
  H  H780  1  0.69230000  0.15130000  0.07510000  1
  H  H781  1  0.08130000  0.65130000  0.57510000  1
  H  H782  1  0.21880000  0.56810000  0.65310000  1
  H  H783  1  0.34560000  0.16390000  0.05730000  1
  H  H784  1  0.56000000  0.06810000  0.15310000  1
  H  H785  1  0.43320000  0.66390000  0.55730000  1
  H  H786  1  0.43230000  0.55550000  0.64870000  1
  H  H787  1  0.36350000  0.05550000  0.14870000  1
  H  H788  1  0.23330000  0.43100000  0.77020000  1
  H  H789  1  0.56550000  0.93100000  0.27020000  1
  H  H790  1  0.92550000  0.19920000  0.97640000  1
  H  H791  1  0.89890000  0.69920000  0.47640000  1
  H  H792  1  0.83570000  0.22980000  0.93100000  1
  H  H793  1  0.00350000  0.72980000  0.43100000  1
  H  H794  1  0.51280000  0.13830000  0.01910000  1
  H  H795  1  0.32980000  0.63830000  0.51910000  1
  H  H796  1  0.87380000  0.11160000  0.03620000  1
  H  H797  1  0.97840000  0.61160000  0.53620000  1
  H  H798  1  0.79850000  0.15970000  0.98510000  1
  H  H799  1  0.05670000  0.65970000  0.48510000  1
  H  H800  1  0.06240000  0.34980000  0.79260000  1
  H  H801  1  0.79520000  0.84980000  0.29260000  1
  H  H802  1  0.09190000  0.30720000  0.82480000  1
  H  H803  1  0.77610000  0.80720000  0.32480000  1
  H  H804  1  0.94080000  0.32890000  0.79690000  1
  H  H805  1  0.95880000  0.29050000  0.83530000  1
  H  H806  1  0.93340000  0.82890000  0.29690000  1
  H  H807  1  0.91540000  0.79050000  0.33530000  1
  H  H808  1  0.71950000  0.50160000  0.62400000  1
  H  H809  1  0.15490000  0.00160000  0.12400000  1
  H  H810  1  0.73610000  0.12800000  0.99700000  1
  H  H811  1  0.13890000  0.62800000  0.49700000  1
  H  H812  1  0.29520000  0.42820000  0.69120000  1
  H  H813  1  0.58540000  0.92820000  0.19120000  1
  H  H814  1  0.79460000  0.47070000  0.64290000  1
  H  H815  1  0.09180000  0.97070000  0.14290000  1
  H  H816  1  0.44340000  0.51420000  0.58400000  1
  H  H817  1  0.45840000  0.01420000  0.08400000  1
  H  H818  1  0.61460000  0.06970000  0.01770000  1
  H  H819  1  0.29800000  0.56970000  0.51770000  1
  H  H820  1  0.87910000  0.08460000  0.99140000  1
  H  H821  1  0.04490000  0.58460000  0.49140000  1
  H  H822  1  0.65020000  0.45160000  0.61620000  1
  H  H823  1  0.28200000  0.95160000  0.11620000  1
  H  H824  1  0.01680000  0.28320000  0.78320000  1
  H  H825  1  0.63020000  0.11860000  0.94780000  1
  H  H826  1  0.91680000  0.78320000  0.28320000  1
  H  H827  1  0.30340000  0.61860000  0.44780000  1
  H  H828  1  0.08780000  0.20740000  0.84980000  1
  H  H829  1  0.85500000  0.70740000  0.34980000  1
  H  H830  1  0.02140000  0.15030000  0.90650000  1
  H  H831  1  0.92180000  0.65030000  0.40650000  1
  H  H832  1  0.81240000  0.50610000  0.54970000  1
  H  H833  1  0.13180000  0.00610000  0.04970000  1
  H  H834  1  0.06580000  0.44460000  0.60580000  1
  H  H835  1  0.88380000  0.94460000  0.10580000  1
  H  H836  1  0.13420000  0.38860000  0.65780000  1
  H  H837  1  0.81940000  0.88860000  0.15780000  1
  H  H838  1  0.20590000  0.33530000  0.70950000  1
  H  H839  1  0.74930000  0.83530000  0.20950000  1
  H  H840  1  0.76230000  0.41220000  0.62800000  1
  H  H841  1  0.19750000  0.91220000  0.12800000  1
  H  H842  1  0.67910000  0.13730000  0.90010000  1
  H  H843  1  0.28350000  0.63730000  0.40010000  1
  H  H844  1  0.88840000  0.47140000  0.56560000  1
  H  H845  1  0.07460000  0.97140000  0.06560000  1
  H  H846  1  0.23030000  0.20310000  0.82890000  1
  H  H847  1  0.73770000  0.70310000  0.32890000  1
  H  H848  1  0.55610000  0.51140000  0.51860000  1
  H  H849  1  0.41390000  0.01140000  0.01860000  1
  H  H850  1  0.16610000  0.14360000  0.88500000  1
  H  H851  1  0.80530000  0.64360000  0.38500000  1
  H  H852  1  0.08330000  0.32480000  0.69280000  1
  H  H853  1  0.89910000  0.82480000  0.19280000  1
  H  H854  1  0.01620000  0.37980000  0.63740000  1
  H  H855  1  0.96660000  0.87980000  0.13740000  1
  H  H856  1  0.69900000  0.45180000  0.56300000  1
  H  H857  1  0.28620000  0.95180000  0.06300000  1
  H  H858  1  0.61250000  0.11020000  0.90060000  1
  H  H859  1  0.37670000  0.61020000  0.40060000  1
  H  H860  1  0.80220000  0.07950000  0.92470000  1
  H  H861  1  0.19360000  0.57950000  0.42470000  1
  H  H862  1  0.02190000  0.42780000  0.57320000  1
  H  H863  1  0.97710000  0.92780000  0.07320000  1
  Mn  Mn864  1  0.79476000  0.49802000  0.42232000  1
  Mn  Mn865  1  0.28490000  0.99802000  0.92232000  1
  Mn  Mn866  1  0.89251000  0.88319000  0.96357000  1
  Mn  Mn867  1  0.26073000  0.38319000  0.46357000  1
  Mn  Mn868  1  0.08704000  0.41711000  0.35713000  1
  Mn  Mn869  1  0.13872000  0.91711000  0.85713000  1
  Mn  Mn870  1  0.14392000  0.46357000  0.11681000  1
  Mn  Mn871  1  0.27570000  0.96357000  0.61681000  1
  Mn  Mn872  1  0.20722000  0.57768000  0.99802000  1
  Mn  Mn873  1  0.21708000  0.07768000  0.49802000  1
  Mn  Mn874  1  0.99585000  0.64287000  0.91711000  1
  Mn  Mn875  1  0.44417000  0.14287000  0.41711000  1
  Mn  Mn876  1  0.00415000  0.35713000  0.08289000  1
  Mn  Mn877  1  0.55583000  0.85713000  0.58289000  1
  Mn  Mn878  1  0.79278000  0.42232000  0.00198000  1
  Mn  Mn879  1  0.78292000  0.92232000  0.50198000  1
  Mn  Mn880  1  0.85608000  0.53643000  0.88319000  1
  Mn  Mn881  1  0.72430000  0.03643000  0.38319000  1
  Mn  Mn882  1  0.91296000  0.58289000  0.64287000  1
  Mn  Mn883  1  0.86128000  0.08289000  0.14287000  1
  Mn  Mn884  1  0.10749000  0.11681000  0.03643000  1
  Mn  Mn885  1  0.73927000  0.61681000  0.53643000  1
  Mn  Mn886  1  0.20524000  0.50198000  0.57768000  1
  Mn  Mn887  1  0.71510000  0.00198000  0.07768000  1
  N  N888  1  0.81945000  0.94028000  0.04302000  1
  N  N889  1  0.19725000  0.44028000  0.54302000  1
  N  N890  1  0.80315000  0.92990000  0.00212000  1
  N  N891  1  0.26483000  0.42990000  0.50212000  1
  N  N892  1  0.74507000  0.43777000  0.41459000  1
  N  N893  1  0.40257000  0.93777000  0.91459000  1
  N  N894  1  0.90518000  0.46971000  0.38261000  1
  N  N895  1  0.24250000  0.96971000  0.88261000  1
  N  N896  1  0.95893000  0.43802000  0.40538000  1
  N  N897  1  0.19767000  0.93802000  0.90538000  1
  N  N898  1  0.17557000  0.42182000  0.42120000  1
  N  N899  1  0.98141000  0.92182000  0.92120000  1
  N  N900  1  0.05625000  0.88932000  0.89810000  1
  N  N901  1  0.15633000  0.38932000  0.39810000  1
  N  N902  1  0.20300000  0.41375000  0.29625000  1
  N  N903  1  0.08700000  0.91375000  0.79625000  1
  N  N904  1  0.88325000  0.70375000  0.91375000  1
  N  N905  1  0.49925000  0.20375000  0.41375000  1
  N  N906  1  0.13753000  0.54302000  0.05972000  1
  N  N907  1  0.25973000  0.04302000  0.55972000  1
  N  N908  1  0.12511000  0.61739000  0.96971000  1
  N  N909  1  0.28779000  0.11739000  0.46971000  1
  N  N910  1  0.19473000  0.50212000  0.07010000  1
  N  N911  1  0.23305000  0.00212000  0.57010000  1
  N  N912  1  0.10305000  0.59462000  0.93802000  1
  N  N913  1  0.36431000  0.09462000  0.43802000  1
  N  N914  1  0.31716000  0.58541000  0.93777000  1
  N  N915  1  0.15966000  0.08541000  0.43777000  1
  N  N916  1  0.04565000  0.39810000  0.11068000  1
  N  N917  1  0.44557000  0.89810000  0.61068000  1
  N  N918  1  0.90261000  0.57880000  0.92182000  1
  N  N919  1  0.59677000  0.07880000  0.42182000  1
  N  N920  1  0.09739000  0.42120000  0.07818000  1
  N  N921  1  0.40323000  0.92120000  0.57818000  1
  N  N922  1  0.95435000  0.60190000  0.88932000  1
  N  N923  1  0.55443000  0.10190000  0.38932000  1
  N  N924  1  0.68284000  0.41459000  0.06223000  1
  N  N925  1  0.84034000  0.91459000  0.56223000  1
  N  N926  1  0.89695000  0.40538000  0.06198000  1
  N  N927  1  0.63569000  0.90538000  0.56198000  1
  N  N928  1  0.80527000  0.49788000  0.92990000  1
  N  N929  1  0.76695000  0.99788000  0.42990000  1
  N  N930  1  0.87489000  0.38261000  0.03029000  1
  N  N931  1  0.71221000  0.88261000  0.53029000  1
  N  N932  1  0.86247000  0.45698000  0.94028000  1
  N  N933  1  0.74027000  0.95698000  0.44028000  1
  N  N934  1  0.11675000  0.29625000  0.08625000  1
  N  N935  1  0.50075000  0.79625000  0.58625000  1
  N  N936  1  0.79700000  0.58625000  0.70375000  1
  N  N937  1  0.91300000  0.08625000  0.20375000  1
  N  N938  1  0.94375000  0.11068000  0.10190000  1
  N  N939  1  0.84367000  0.61068000  0.60190000  1
  N  N940  1  0.82443000  0.57818000  0.57880000  1
  N  N941  1  0.01859000  0.07818000  0.07880000  1
  N  N942  1  0.04107000  0.56198000  0.59462000  1
  N  N943  1  0.80233000  0.06198000  0.09462000  1
  N  N944  1  0.09482000  0.53029000  0.61739000  1
  N  N945  1  0.75750000  0.03029000  0.11739000  1
  N  N946  1  0.25493000  0.56223000  0.58541000  1
  N  N947  1  0.59743000  0.06223000  0.08541000  1
  N  N948  1  0.19685000  0.07010000  0.99788000  1
  N  N949  1  0.73517000  0.57010000  0.49788000  1
  N  N950  1  0.18055000  0.05972000  0.95698000  1
  N  N951  1  0.80275000  0.55972000  0.45698000  1
  O  O952  1  0.68583000  0.51975000  0.46931000  1
  O  O953  1  0.32511000  0.01975000  0.96931000  1
  O  O954  1  0.23003000  0.95929000  0.96695000  1
  O  O955  1  0.84373000  0.45929000  0.46695000  1
  O  O956  1  0.76418000  0.53062000  0.37244000  1
  O  O957  1  0.33276000  0.03062000  0.87244000  1
  O  O958  1  0.93816000  0.88241000  0.01509000  1
  O  O959  1  0.16434000  0.38241000  0.51509000  1
  O  O960  1  0.10257000  0.47219000  0.37707000  1
  O  O961  1  0.04817000  0.97219000  0.87707000  1
  O  O962  1  0.83485000  0.89243000  0.91849000  1
  O  O963  1  0.35423000  0.39243000  0.41849000  1
  O  O964  1  0.01526000  0.45204000  0.31808000  1
  O  O965  1  0.21462000  0.95204000  0.81808000  1
  O  O966  1  0.99034000  0.83441000  0.92933000  1
  O  O967  1  0.24592000  0.33441000  0.42933000  1
  O  O968  1  0.08272000  0.35938000  0.34328000  1
  O  O969  1  0.21462000  0.85938000  0.84328000  1
  O  O970  1  0.20520000  0.62756000  0.03062000  1
  O  O971  1  0.13662000  0.12756000  0.53062000  1
  O  O972  1  0.03270000  0.68192000  0.95204000  1
  O  O973  1  0.33334000  0.18192000  0.45204000  1
  O  O974  1  0.04675000  0.51509000  0.11759000  1
  O  O975  1  0.32057000  0.01509000  0.61759000  1
  O  O976  1  0.92524000  0.62293000  0.97219000  1
  O  O977  1  0.47964000  0.12293000  0.47219000  1
  O  O978  1  0.08033000  0.42933000  0.16559000  1
  O  O979  1  0.32475000  0.92933000  0.66559000  1
  O  O980  1  0.29442000  0.53069000  0.01975000  1
  O  O981  1  0.15514000  0.03069000  0.51975000  1
  O  O982  1  0.24666000  0.41849000  0.10757000  1
  O  O983  1  0.22728000  0.91849000  0.60757000  1
  O  O984  1  0.05790000  0.65672000  0.85938000  1
  O  O985  1  0.42600000  0.15672000  0.35938000  1
  O  O986  1  0.80302000  0.46695000  0.04071000  1
  O  O987  1  0.68932000  0.96695000  0.54071000  1
  O  O988  1  0.19698000  0.53305000  0.95929000  1
  O  O989  1  0.31068000  0.03305000  0.45929000  1
  O  O990  1  0.94210000  0.34328000  0.14062000  1
  O  O991  1  0.57400000  0.84328000  0.64062000  1
  O  O992  1  0.75334000  0.58151000  0.89243000  1
  O  O993  1  0.77272000  0.08151000  0.39243000  1
  O  O994  1  0.70558000  0.46931000  0.98025000  1
  O  O995  1  0.84486000  0.96931000  0.48025000  1
  O  O996  1  0.91967000  0.57067000  0.83441000  1
  O  O997  1  0.67525000  0.07067000  0.33441000  1
  O  O998  1  0.07476000  0.37707000  0.02781000  1
  O  O999  1  0.52036000  0.87707000  0.52781000  1
  O  O1000  1  0.95325000  0.48491000  0.88241000  1
  O  O1001  1  0.67943000  0.98491000  0.38241000  1
  O  O1002  1  0.96730000  0.31808000  0.04796000  1
  O  O1003  1  0.66666000  0.81808000  0.54796000  1
  O  O1004  1  0.79480000  0.37244000  0.96938000  1
  O  O1005  1  0.86338000  0.87244000  0.46938000  1
  O  O1006  1  0.91728000  0.64062000  0.65672000  1
  O  O1007  1  0.78538000  0.14062000  0.15672000  1
  O  O1008  1  0.00966000  0.16559000  0.07067000  1
  O  O1009  1  0.75408000  0.66559000  0.57067000  1
  O  O1010  1  0.98474000  0.54796000  0.68192000  1
  O  O1011  1  0.78538000  0.04796000  0.18192000  1
  O  O1012  1  0.16515000  0.10757000  0.08151000  1
  O  O1013  1  0.64577000  0.60757000  0.58151000  1
  O  O1014  1  0.89743000  0.52781000  0.62293000  1
  O  O1015  1  0.95183000  0.02781000  0.12293000  1
  O  O1016  1  0.06184000  0.11759000  0.98491000  1
  O  O1017  1  0.83566000  0.61759000  0.48491000  1
  O  O1018  1  0.23582000  0.46938000  0.62756000  1
  O  O1019  1  0.66724000  0.96938000  0.12756000  1
  O  O1020  1  0.76997000  0.04071000  0.03305000  1
  O  O1021  1  0.15627000  0.54071000  0.53305000  1
  O  O1022  1  0.31417000  0.48025000  0.53069000  1
  O  O1023  1  0.67489000  0.98025000  0.03069000  1
