# generated using pymatgen
data_Cd2H58C59(N3O4)2
_symmetry_space_group_name_H-M   'P 1'
_cell_length_a   12.67390000
_cell_length_b   12.67390000
_cell_length_c   23.30700000
_cell_angle_alpha   83.00250000
_cell_angle_beta   83.00250000
_cell_angle_gamma   62.80560000
_symmetry_Int_Tables_number   1
_chemical_formula_structural   Cd2H58C59(N3O4)2
_chemical_formula_sum   'Cd4 H116 C118 N12 O16'
_cell_volume   3295.82628523
_cell_formula_units_Z   2
loop_
 _symmetry_equiv_pos_site_id
 _symmetry_equiv_pos_as_xyz
  1  'x, y, z'
loop_
 _atom_site_type_symbol
 _atom_site_label
 _atom_site_symmetry_multiplicity
 _atom_site_fract_x
 _atom_site_fract_y
 _atom_site_fract_z
 _atom_site_occupancy
  Cd  Cd0  1  0.64954000  0.76773000  0.64391000  1
  Cd  Cd1  1  0.76773000  0.64954000  0.14391000  1
  Cd  Cd2  1  0.23227000  0.35046000  0.85609000  1
  Cd  Cd3  1  0.35046000  0.23227000  0.35609000  1
  H  H4  1  0.29690000  0.99230000  0.96500000  1
  H  H5  1  0.40030000  0.97990000  0.91750000  1
  H  H6  1  0.38500000  0.96520000  0.74670000  1
  H  H7  1  0.93360000  0.95140000  0.17190000  1
  H  H8  1  0.09340000  0.93940000  0.71780000  1
  H  H9  1  0.34620000  0.93880000  0.06440000  1
  H  H10  1  0.95140000  0.93360000  0.67190000  1
  H  H11  1  0.78710000  0.93190000  0.64230000  1
  H  H12  1  0.06060000  0.90660000  0.78220000  1
  H  H13  1  0.36920000  0.89900000  0.61760000  1
  H  H14  1  0.22330000  0.87950000  0.57860000  1
  H  H15  1  0.43890000  0.87930000  0.47700000  1
  H  H16  1  0.30820000  0.87300000  0.89070000  1
  H  H17  1  0.27270000  0.87030000  0.43040000  1
  H  H18  1  0.62320000  0.86700000  0.22410000  1
  H  H19  1  0.48410000  0.84770000  0.13220000  1
  H  H20  1  0.29380000  0.84340000  0.73500000  1
  H  H21  1  0.56320000  0.83540000  0.44160000  1
  H  H22  1  0.23200000  0.83040000  0.98280000  1
  H  H23  1  0.60950000  0.81530000  0.94040000  1
  H  H24  1  0.26080000  0.81120000  0.79940000  1
  H  H25  1  0.93190000  0.78710000  0.14230000  1
  H  H26  1  0.43670000  0.78150000  0.90680000  1
  H  H27  1  0.24020000  0.77720000  0.12350000  1
  H  H28  1  0.12050000  0.77670000  0.92140000  1
  H  H29  1  0.16960000  0.76800000  0.51720000  1
  H  H30  1  0.22280000  0.75980000  0.37650000  1
  H  H31  1  0.72690000  0.74010000  0.51130000  1
  H  H32  1  0.18880000  0.73920000  0.70060000  1
  H  H33  1  0.36090000  0.73630000  0.99740000  1
  H  H34  1  0.12970000  0.72730000  0.06960000  1
  H  H35  1  0.74010000  0.72690000  0.01130000  1
  H  H36  1  0.15660000  0.70620000  0.76500000  1
  H  H37  1  0.00770000  0.70310000  0.53500000  1
  H  H38  1  0.61100000  0.69900000  0.36840000  1
  H  H39  1  0.12700000  0.69180000  0.60930000  1
  H  H40  1  0.50370000  0.66730000  0.82370000  1
  H  H41  1  0.06120000  0.65380000  0.43560000  1
  H  H42  1  0.26370000  0.63910000  0.50260000  1
  H  H43  1  0.38090000  0.63310000  0.18140000  1
  H  H44  1  0.10100000  0.63080000  0.88240000  1
  H  H45  1  0.86700000  0.62320000  0.72410000  1
  H  H46  1  0.36690000  0.61910000  0.31860000  1
  H  H47  1  0.03480000  0.61500000  0.75330000  1
  H  H48  1  0.69900000  0.61100000  0.86840000  1
  H  H49  1  0.81530000  0.60950000  0.44040000  1
  H  H50  1  0.02010000  0.59970000  0.58250000  1
  H  H51  1  0.57190000  0.59230000  0.09460000  1
  H  H52  1  0.59230000  0.57190000  0.59460000  1
  H  H53  1  0.50130000  0.57050000  0.78880000  1
  H  H54  1  0.21850000  0.56330000  0.59320000  1
  H  H55  1  0.83540000  0.56320000  0.94160000  1
  H  H56  1  0.12070000  0.56110000  0.02300000  1
  H  H57  1  0.45730000  0.54730000  0.94570000  1
  H  H58  1  0.45270000  0.54270000  0.55430000  1
  H  H59  1  0.15230000  0.51590000  0.36780000  1
  H  H60  1  0.66730000  0.50370000  0.32370000  1
  H  H61  1  0.57050000  0.50130000  0.28880000  1
  H  H62  1  0.42950000  0.49870000  0.71120000  1
  H  H63  1  0.33270000  0.49630000  0.67630000  1
  H  H64  1  0.84770000  0.48410000  0.63220000  1
  H  H65  1  0.54730000  0.45730000  0.44570000  1
  H  H66  1  0.54270000  0.45270000  0.05430000  1
  H  H67  1  0.87930000  0.43890000  0.97700000  1
  H  H68  1  0.16460000  0.43680000  0.05840000  1
  H  H69  1  0.78150000  0.43670000  0.40680000  1
  H  H70  1  0.49870000  0.42950000  0.21120000  1
  H  H71  1  0.40770000  0.42810000  0.40540000  1
  H  H72  1  0.42810000  0.40770000  0.90540000  1
  H  H73  1  0.97990000  0.40030000  0.41750000  1
  H  H74  1  0.18470000  0.39050000  0.55960000  1
  H  H75  1  0.30100000  0.38900000  0.13160000  1
  H  H76  1  0.96520000  0.38500000  0.24670000  1
  H  H77  1  0.63310000  0.38090000  0.68140000  1
  H  H78  1  0.13300000  0.37680000  0.27590000  1
  H  H79  1  0.89900000  0.36920000  0.11760000  1
  H  H80  1  0.61910000  0.36690000  0.81860000  1
  H  H81  1  0.73630000  0.36090000  0.49740000  1
  H  H82  1  0.93880000  0.34620000  0.56440000  1
  H  H83  1  0.49630000  0.33270000  0.17630000  1
  H  H84  1  0.87300000  0.30820000  0.39070000  1
  H  H85  1  0.38900000  0.30100000  0.63160000  1
  H  H86  1  0.99230000  0.29690000  0.46500000  1
  H  H87  1  0.84340000  0.29380000  0.23500000  1
  H  H88  1  0.25990000  0.27310000  0.98870000  1
  H  H89  1  0.87030000  0.27270000  0.93040000  1
  H  H90  1  0.63910000  0.26370000  0.00260000  1
  H  H91  1  0.81120000  0.26080000  0.29940000  1
  H  H92  1  0.27310000  0.25990000  0.48870000  1
  H  H93  1  0.77720000  0.24020000  0.62350000  1
  H  H94  1  0.83040000  0.23200000  0.48280000  1
  H  H95  1  0.87950000  0.22330000  0.07860000  1
  H  H96  1  0.75980000  0.22280000  0.87650000  1
  H  H97  1  0.56330000  0.21850000  0.09320000  1
  H  H98  1  0.06810000  0.21290000  0.85770000  1
  H  H99  1  0.73920000  0.18880000  0.20060000  1
  H  H100  1  0.39050000  0.18470000  0.05960000  1
  H  H101  1  0.76800000  0.16960000  0.01720000  1
  H  H102  1  0.43680000  0.16460000  0.55840000  1
  H  H103  1  0.70620000  0.15660000  0.26500000  1
  H  H104  1  0.51590000  0.15230000  0.86780000  1
  H  H105  1  0.37680000  0.13300000  0.77590000  1
  H  H106  1  0.72730000  0.12970000  0.56960000  1
  H  H107  1  0.69180000  0.12700000  0.10930000  1
  H  H108  1  0.56110000  0.12070000  0.52300000  1
  H  H109  1  0.77670000  0.12050000  0.42140000  1
  H  H110  1  0.63080000  0.10100000  0.38240000  1
  H  H111  1  0.93940000  0.09340000  0.21780000  1
  H  H112  1  0.21290000  0.06810000  0.35770000  1
  H  H113  1  0.04860000  0.06640000  0.32810000  1
  H  H114  1  0.65380000  0.06120000  0.93560000  1
  H  H115  1  0.90660000  0.06060000  0.28220000  1
  H  H116  1  0.06640000  0.04860000  0.82810000  1
  H  H117  1  0.61500000  0.03480000  0.25330000  1
  H  H118  1  0.59970000  0.02010000  0.08250000  1
  H  H119  1  0.70310000  0.00770000  0.03500000  1
  C  C120  1  0.43915000  0.99715000  0.40751000  1
  C  C121  1  0.68113000  0.98573000  0.23063000  1
  C  C122  1  0.22704000  0.98524000  0.78452000  1
  C  C123  1  0.86800000  0.93680000  0.18250000  1
  C  C124  1  0.37343000  0.93663000  0.94810000  1
  C  C125  1  0.42598000  0.89518000  0.05250000  1
  C  C126  1  0.46162000  0.88502000  0.99401000  1
  C  C127  1  0.68654000  0.88474000  0.21260000  1
  C  C128  1  0.12040000  0.87960000  0.75000000  1
  C  C129  1  0.47800000  0.87300000  0.43819000  1
  C  C130  1  0.23403000  0.87103000  0.76720000  1
  C  C131  1  0.93680000  0.86800000  0.68250000  1
  C  C132  1  0.83737000  0.86677000  0.66510000  1
  C  C133  1  0.50961000  0.84001000  0.09313000  1
  C  C134  1  0.35957000  0.83817000  0.92243000  1
  C  C135  1  0.86677000  0.83737000  0.16510000  1
  C  C136  1  0.38689000  0.82609000  0.60423000  1
  C  C137  1  0.58134000  0.82214000  0.97915000  1
  C  C138  1  0.29830000  0.81510000  0.58080000  1
  C  C139  1  0.33120000  0.81400000  0.40720000  1
  C  C140  1  0.44672000  0.79672000  0.40483000  1
  C  C141  1  0.30824000  0.77364000  0.96627000  1
  C  C142  1  0.01476000  0.77296000  0.71548000  1
  C  C143  1  0.65950000  0.76930000  0.02223000  1
  C  C144  1  0.12897000  0.76597000  0.73280000  1
  C  C145  1  0.30130000  0.74750000  0.37480000  1
  C  C146  1  0.53254000  0.71134000  0.36999000  1
  C  C147  1  0.32086000  0.70846000  0.56052000  1
  C  C148  1  0.18490000  0.70170000  0.91920000  1
  C  C149  1  0.25250000  0.69870000  0.12520000  1
  C  C150  1  0.22636000  0.69176000  0.53373000  1
  C  C151  1  0.88474000  0.68654000  0.71260000  1
  C  C152  1  0.98573000  0.68113000  0.73063000  1
  C  C153  1  0.29154000  0.67914000  0.93948000  1
  C  C154  1  0.18600000  0.66880000  0.09280000  1
  C  C155  1  0.38767000  0.66307000  0.34016000  1
  C  C156  1  0.76930000  0.65950000  0.52223000  1
  C  C157  1  0.60458000  0.64558000  0.74667000  1
  C  C158  1  0.50440000  0.64400000  0.33753000  1
  C  C159  1  0.16183000  0.64043000  0.57757000  1
  C  C160  1  0.51713000  0.63533000  0.59080000  1
  C  C161  1  0.06337000  0.62657000  0.55190000  1
  C  C162  1  0.43319000  0.61699000  0.56660000  1
  C  C163  1  0.17391000  0.61311000  0.89577000  1
  C  C164  1  0.33693000  0.61233000  0.15984000  1
  C  C165  1  0.64558000  0.60458000  0.24667000  1
  C  C166  1  0.55270000  0.60070000  0.80048000  1
  C  C167  1  0.82214000  0.58134000  0.47915000  1
  C  C168  1  0.10482000  0.57402000  0.44750000  1
  C  C169  1  0.38301000  0.56681000  0.93340000  1
  C  C170  1  0.00285000  0.56085000  0.09249000  1
  C  C171  1  0.20328000  0.55328000  0.09517000  1
  C  C172  1  0.60070000  0.55270000  0.30048000  1
  C  C173  1  0.11498000  0.53838000  0.50599000  1
  C  C174  1  0.71134000  0.53254000  0.86999000  1
  C  C175  1  0.12700000  0.52200000  0.06181000  1
  C  C176  1  0.63533000  0.51713000  0.09080000  1
  C  C177  1  0.84001000  0.50961000  0.59313000  1
  C  C178  1  0.64400000  0.50440000  0.83753000  1
  C  C179  1  0.35600000  0.49560000  0.16247000  1
  C  C180  1  0.15999000  0.49039000  0.40687000  1
  C  C181  1  0.36467000  0.48287000  0.90920000  1
  C  C182  1  0.87300000  0.47800000  0.93819000  1
  C  C183  1  0.28866000  0.46746000  0.13001000  1
  C  C184  1  0.88502000  0.46162000  0.49401000  1
  C  C185  1  0.39930000  0.44730000  0.69952000  1
  C  C186  1  0.79672000  0.44672000  0.90483000  1
  C  C187  1  0.99715000  0.43915000  0.90751000  1
  C  C188  1  0.61699000  0.43319000  0.06660000  1
  C  C189  1  0.89518000  0.42598000  0.55250000  1
  C  C190  1  0.17786000  0.41866000  0.52085000  1
  C  C191  1  0.44730000  0.39930000  0.19952000  1
  C  C192  1  0.35442000  0.39542000  0.75333000  1
  C  C193  1  0.66307000  0.38767000  0.84016000  1
  C  C194  1  0.82609000  0.38689000  0.10423000  1
  C  C195  1  0.56681000  0.38301000  0.43340000  1
  C  C196  1  0.93663000  0.37343000  0.44810000  1
  C  C197  1  0.48287000  0.36467000  0.40920000  1
  C  C198  1  0.83817000  0.35957000  0.42243000  1
  C  C199  1  0.49560000  0.35600000  0.66247000  1
  C  C200  1  0.39542000  0.35442000  0.25333000  1
  C  C201  1  0.23070000  0.34050000  0.47777000  1
  C  C202  1  0.61233000  0.33693000  0.65984000  1
  C  C203  1  0.81400000  0.33120000  0.90720000  1
  C  C204  1  0.70846000  0.32086000  0.06052000  1
  C  C205  1  0.01427000  0.31887000  0.26937000  1
  C  C206  1  0.11526000  0.31346000  0.28740000  1
  C  C207  1  0.77364000  0.30824000  0.46627000  1
  C  C208  1  0.74750000  0.30130000  0.87480000  1
  C  C209  1  0.81510000  0.29830000  0.08080000  1
  C  C210  1  0.67914000  0.29154000  0.43948000  1
  C  C211  1  0.46746000  0.28866000  0.63001000  1
  C  C212  1  0.69870000  0.25250000  0.62520000  1
  C  C213  1  0.87103000  0.23403000  0.26720000  1
  C  C214  1  0.34050000  0.23070000  0.97777000  1
  C  C215  1  0.98524000  0.22704000  0.28452000  1
  C  C216  1  0.69176000  0.22636000  0.03373000  1
  C  C217  1  0.55328000  0.20328000  0.59517000  1
  C  C218  1  0.66880000  0.18600000  0.59280000  1
  C  C219  1  0.70170000  0.18490000  0.41920000  1
  C  C220  1  0.41866000  0.17786000  0.02085000  1
  C  C221  1  0.61311000  0.17391000  0.39577000  1
  C  C222  1  0.13323000  0.16263000  0.83490000  1
  C  C223  1  0.64043000  0.16183000  0.07757000  1
  C  C224  1  0.49039000  0.15999000  0.90687000  1
  C  C225  1  0.16263000  0.13323000  0.33490000  1
  C  C226  1  0.06320000  0.13200000  0.31750000  1
  C  C227  1  0.76597000  0.12897000  0.23280000  1
  C  C228  1  0.52200000  0.12700000  0.56181000  1
  C  C229  1  0.87960000  0.12040000  0.25000000  1
  C  C230  1  0.31346000  0.11526000  0.78740000  1
  C  C231  1  0.53838000  0.11498000  0.00599000  1
  C  C232  1  0.57402000  0.10482000  0.94750000  1
  C  C233  1  0.62657000  0.06337000  0.05190000  1
  C  C234  1  0.13200000  0.06320000  0.81750000  1
  C  C235  1  0.77296000  0.01476000  0.21548000  1
  C  C236  1  0.31887000  0.01427000  0.76937000  1
  C  C237  1  0.56085000  0.00285000  0.59249000  1
  N  N238  1  0.77700000  0.80980000  0.17943000  1
  N  N239  1  0.80980000  0.77700000  0.67943000  1
  N  N240  1  0.62549000  0.77609000  0.07865000  1
  N  N241  1  0.49593000  0.73873000  0.60883000  1
  N  N242  1  0.77609000  0.62549000  0.57865000  1
  N  N243  1  0.26127000  0.50407000  0.89117000  1
  N  N244  1  0.73873000  0.49593000  0.10883000  1
  N  N245  1  0.22391000  0.37451000  0.42135000  1
  N  N246  1  0.50407000  0.26127000  0.39117000  1
  N  N247  1  0.37451000  0.22391000  0.92135000  1
  N  N248  1  0.19020000  0.22300000  0.32057000  1
  N  N249  1  0.22300000  0.19020000  0.82057000  1
  O  O250  1  0.51175000  0.99075000  0.64039000  1
  O  O251  1  0.64302000  0.91622000  0.56933000  1
  O  O252  1  0.56364000  0.75604000  0.73562000  1
  O  O253  1  0.57218000  0.68378000  0.21466000  1
  O  O254  1  0.91622000  0.64302000  0.06933000  1
  O  O255  1  0.68378000  0.57218000  0.71466000  1
  O  O256  1  0.75604000  0.56364000  0.23562000  1
  O  O257  1  0.99075000  0.51175000  0.14039000  1
  O  O258  1  0.00925000  0.48825000  0.85961000  1
  O  O259  1  0.24396000  0.43636000  0.76438000  1
  O  O260  1  0.31622000  0.42782000  0.28534000  1
  O  O261  1  0.08378000  0.35698000  0.93067000  1
  O  O262  1  0.42782000  0.31622000  0.78534000  1
  O  O263  1  0.43636000  0.24396000  0.26438000  1
  O  O264  1  0.35698000  0.08378000  0.43067000  1
  O  O265  1  0.48825000  0.00925000  0.35961000  1
