# generated using pymatgen
data_Tb2H24C26O17
_symmetry_space_group_name_H-M   'P 1'
_cell_length_a   11.87800000
_cell_length_b   12.41900000
_cell_length_c   12.48900000
_cell_angle_alpha   90.00000000
_cell_angle_beta   98.63000000
_cell_angle_gamma   90.00000000
_symmetry_Int_Tables_number   1
_chemical_formula_structural   Tb2H24C26O17
_chemical_formula_sum   'Tb4 H48 C52 O34'
_cell_volume   1821.42990025
_cell_formula_units_Z   2
loop_
 _symmetry_equiv_pos_site_id
 _symmetry_equiv_pos_as_xyz
  1  'x, y, z'
loop_
 _atom_site_type_symbol
 _atom_site_label
 _atom_site_symmetry_multiplicity
 _atom_site_fract_x
 _atom_site_fract_y
 _atom_site_fract_z
 _atom_site_occupancy
  Tb  Tb0  1  0.36193000  0.77053000  0.81499000  1
  Tb  Tb1  1  0.37186000  0.05439000  0.13200000  1
  Tb  Tb2  1  0.62814000  0.55439000  0.86800000  1
  Tb  Tb3  1  0.63807000  0.27053000  0.18501000  1
  H  H4  1  0.00270000  0.96280000  0.92970000  1
  H  H5  1  0.00760000  0.93640000  0.25180000  1
  H  H6  1  0.11070000  0.16100000  0.76040000  1
  H  H7  1  0.12860000  0.03670000  0.77640000  1
  H  H8  1  0.14870000  0.11400000  0.87670000  1
  H  H9  1  0.14940000  0.76870000  0.13300000  1
  H  H10  1  0.14980000  0.64450000  0.15550000  1
  H  H11  1  0.16980000  0.68740000  0.04180000  1
  H  H12  1  0.20620000  0.84410000  0.59150000  1
  H  H13  1  0.23910000  0.89620000  0.68950000  1
  H  H14  1  0.28550000  0.39600000  0.95100000  1
  H  H15  1  0.30200000  0.47440000  0.59010000  1
  H  H16  1  0.30220000  0.19320000  0.80450000  1
  H  H17  1  0.30380000  0.36560000  0.31810000  1
  H  H18  1  0.32340000  0.09890000  0.48440000  1
  H  H19  1  0.32600000  0.35090000  0.60630000  1
  H  H20  1  0.32640000  0.48810000  0.29980000  1
  H  H21  1  0.34220000  0.63410000  0.14650000  1
  H  H22  1  0.35950000  0.72360000  0.47080000  1
  H  H23  1  0.36240000  0.37960000  0.79820000  1
  H  H24  1  0.36390000  0.44730000  0.12300000  1
  H  H25  1  0.42440000  0.43440000  0.63780000  1
  H  H26  1  0.42600000  0.40480000  0.30310000  1
  H  H27  1  0.47910000  0.16930000  0.78480000  1
  H  H28  1  0.52090000  0.66930000  0.21520000  1
  H  H29  1  0.57400000  0.90480000  0.69690000  1
  H  H30  1  0.57560000  0.93440000  0.36220000  1
  H  H31  1  0.63610000  0.94730000  0.87700000  1
  H  H32  1  0.63760000  0.87960000  0.20180000  1
  H  H33  1  0.64050000  0.22360000  0.52920000  1
  H  H34  1  0.65780000  0.13410000  0.85350000  1
  H  H35  1  0.67360000  0.98810000  0.70020000  1
  H  H36  1  0.67400000  0.85090000  0.39370000  1
  H  H37  1  0.67660000  0.59890000  0.51560000  1
  H  H38  1  0.69620000  0.86560000  0.68190000  1
  H  H39  1  0.69780000  0.69320000  0.19550000  1
  H  H40  1  0.69800000  0.97440000  0.40990000  1
  H  H41  1  0.71450000  0.89600000  0.04900000  1
  H  H42  1  0.76090000  0.39620000  0.31050000  1
  H  H43  1  0.79380000  0.34410000  0.40850000  1
  H  H44  1  0.83020000  0.18740000  0.95820000  1
  H  H45  1  0.85020000  0.14450000  0.84450000  1
  H  H46  1  0.85060000  0.26870000  0.86700000  1
  H  H47  1  0.85130000  0.61400000  0.12330000  1
  H  H48  1  0.87140000  0.53670000  0.22360000  1
  H  H49  1  0.88930000  0.66100000  0.23960000  1
  H  H50  1  0.99240000  0.43640000  0.74820000  1
  H  H51  1  0.99730000  0.46280000  0.07030000  1
  C  C52  1  0.02280000  0.95320000  0.09260000  1
  C  C53  1  0.03250000  0.43470000  0.81820000  1
  C  C54  1  0.03540000  0.45010000  0.01160000  1
  C  C55  1  0.14770000  0.41380000  0.83570000  1
  C  C56  1  0.14770000  0.97970000  0.11080000  1
  C  C57  1  0.15070000  0.42810000  0.02810000  1
  C  C58  1  0.15550000  0.10650000  0.80140000  1
  C  C59  1  0.18320000  0.70110000  0.11840000  1
  C  C60  1  0.20780000  0.41020000  0.94000000  1
  C  C61  1  0.27870000  0.11890000  0.78690000  1
  C  C62  1  0.30990000  0.70520000  0.15720000  1
  C  C63  1  0.31370000  0.42850000  0.75010000  1
  C  C64  1  0.31660000  0.40040000  0.16100000  1
  C  C65  1  0.33110000  0.54360000  0.79130000  1
  C  C66  1  0.33640000  0.28270000  0.13380000  1
  C  C67  1  0.34440000  0.42140000  0.63540000  1
  C  C68  1  0.34580000  0.41610000  0.28140000  1
  C  C69  1  0.35650000  0.04220000  0.86260000  1
  C  C70  1  0.36940000  0.78840000  0.09390000  1
  C  C71  1  0.38640000  0.12520000  0.53010000  1
  C  C72  1  0.38680000  0.13000000  0.64090000  1
  C  C73  1  0.42240000  0.69640000  0.33230000  1
  C  C74  1  0.42240000  0.69790000  0.44260000  1
  C  C75  1  0.48060000  0.16580000  0.71060000  1
  C  C76  1  0.48210000  0.16050000  0.48830000  1
  C  C77  1  0.48490000  0.15910000  0.36910000  1
  C  C78  1  0.51510000  0.65910000  0.63090000  1
  C  C79  1  0.51790000  0.66050000  0.51170000  1
  C  C80  1  0.51940000  0.66580000  0.28940000  1
  C  C81  1  0.57760000  0.19640000  0.66770000  1
  C  C82  1  0.57760000  0.19790000  0.55740000  1
  C  C83  1  0.61320000  0.63000000  0.35910000  1
  C  C84  1  0.61360000  0.62520000  0.46990000  1
  C  C85  1  0.63060000  0.28840000  0.90610000  1
  C  C86  1  0.64350000  0.54220000  0.13740000  1
  C  C87  1  0.65420000  0.91610000  0.71860000  1
  C  C88  1  0.65560000  0.92140000  0.36460000  1
  C  C89  1  0.66360000  0.78270000  0.86620000  1
  C  C90  1  0.66890000  0.04360000  0.20870000  1
  C  C91  1  0.68340000  0.90040000  0.83900000  1
  C  C92  1  0.68630000  0.92850000  0.24990000  1
  C  C93  1  0.69010000  0.20520000  0.84280000  1
  C  C94  1  0.72130000  0.61890000  0.21310000  1
  C  C95  1  0.79220000  0.91020000  0.06000000  1
  C  C96  1  0.81680000  0.20110000  0.88160000  1
  C  C97  1  0.84450000  0.60650000  0.19860000  1
  C  C98  1  0.84930000  0.92810000  0.97190000  1
  C  C99  1  0.85230000  0.47970000  0.88920000  1
  C  C100  1  0.85230000  0.91380000  0.16430000  1
  C  C101  1  0.96460000  0.95010000  0.98840000  1
  C  C102  1  0.96750000  0.93470000  0.18180000  1
  C  C103  1  0.97720000  0.45320000  0.90740000  1
  O  O104  1  0.19810000  0.39710000  0.74470000  1
  O  O105  1  0.19870000  0.00410000  0.20230000  1
  O  O106  1  0.20030000  0.42860000  0.13340000  1
  O  O107  1  0.20070000  0.97790000  0.02860000  1
  O  O108  1  0.24690000  0.83940000  0.65340000  1
  O  O109  1  0.25330000  0.61150000  0.76840000  1
  O  O110  1  0.25710000  0.21740000  0.12140000  1
  O  O111  1  0.28760000  0.09950000  0.67670000  1
  O  O112  1  0.32370000  0.72700000  0.27060000  1
  O  O113  1  0.37640000  0.76280000  0.99880000  1
  O  O114  1  0.38140000  0.95310000  0.82820000  1
  O  O115  1  0.39010000  0.07800000  0.95530000  1
  O  O116  1  0.40750000  0.87320000  0.14060000  1
  O  O117  1  0.41270000  0.10200000  0.31190000  1
  O  O118  1  0.42640000  0.56930000  0.84440000  1
  O  O119  1  0.43810000  0.25500000  0.12800000  1
  O  O120  1  0.44040000  0.71570000  0.66470000  1
  O  O121  1  0.55960000  0.21570000  0.33530000  1
  O  O122  1  0.56190000  0.75500000  0.87200000  1
  O  O123  1  0.57360000  0.06930000  0.15560000  1
  O  O124  1  0.58730000  0.60200000  0.68810000  1
  O  O125  1  0.59250000  0.37320000  0.85940000  1
  O  O126  1  0.60990000  0.57800000  0.04470000  1
  O  O127  1  0.61860000  0.45310000  0.17180000  1
  O  O128  1  0.62360000  0.26280000  0.00120000  1
  O  O129  1  0.67630000  0.22700000  0.72940000  1
  O  O130  1  0.71240000  0.59950000  0.32330000  1
  O  O131  1  0.74290000  0.71740000  0.87860000  1
  O  O132  1  0.74670000  0.11150000  0.23160000  1
  O  O133  1  0.75310000  0.33940000  0.34660000  1
  O  O134  1  0.79930000  0.47790000  0.97140000  1
  O  O135  1  0.79970000  0.92860000  0.86660000  1
  O  O136  1  0.80130000  0.50410000  0.79770000  1
  O  O137  1  0.80190000  0.89710000  0.25530000  1
