# generated using pymatgen
data_Zn4H12C24O13
_symmetry_space_group_name_H-M   'P 1'
_cell_length_a   18.38000000
_cell_length_b   18.38000000
_cell_length_c   18.38000000
_cell_angle_alpha   60.25950000
_cell_angle_beta   60.25950000
_cell_angle_gamma   60.25950000
_symmetry_Int_Tables_number   1
_chemical_formula_structural   Zn4H12C24O13
_chemical_formula_sum   'Zn16 H48 C96 O52'
_cell_volume   4416.36566397
_cell_formula_units_Z   4
loop_
 _symmetry_equiv_pos_site_id
 _symmetry_equiv_pos_as_xyz
  1  'x, y, z'
loop_
 _atom_site_type_symbol
 _atom_site_label
 _atom_site_symmetry_multiplicity
 _atom_site_fract_x
 _atom_site_fract_y
 _atom_site_fract_z
 _atom_site_occupancy
  Zn  Zn0  1  0.80386000  0.97798000  0.80386000  1
  Zn  Zn1  1  0.97798000  0.80386000  0.80386000  1
  Zn  Zn2  1  0.80386000  0.80386000  0.97798000  1
  Zn  Zn3  1  0.80339000  0.80339000  0.80339000  1
  Zn  Zn4  1  0.60933000  0.78329000  0.60933000  1
  Zn  Zn5  1  0.78329000  0.60933000  0.60933000  1
  Zn  Zn6  1  0.60933000  0.60933000  0.78329000  1
  Zn  Zn7  1  0.60879000  0.60879000  0.60879000  1
  Zn  Zn8  1  0.39121000  0.39121000  0.39121000  1
  Zn  Zn9  1  0.39067000  0.39067000  0.21671000  1
  Zn  Zn10  1  0.21671000  0.39067000  0.39067000  1
  Zn  Zn11  1  0.39067000  0.21671000  0.39067000  1
  Zn  Zn12  1  0.19661000  0.19661000  0.19661000  1
  Zn  Zn13  1  0.19614000  0.19614000  0.02202000  1
  Zn  Zn14  1  0.02202000  0.19614000  0.19614000  1
  Zn  Zn15  1  0.19614000  0.02202000  0.19614000  1
  H  H16  1  0.44760000  0.96620000  0.44760000  1
  H  H17  1  0.75090000  0.96540000  0.44480000  1
  H  H18  1  0.44480000  0.96540000  0.75090000  1
  H  H19  1  0.64150000  0.94500000  0.64150000  1
  H  H20  1  0.64330000  0.94490000  0.16070000  1
  H  H21  1  0.16070000  0.94490000  0.64330000  1
  H  H22  1  0.35800000  0.83970000  0.35800000  1
  H  H23  1  0.35670000  0.83930000  0.05510000  1
  H  H24  1  0.05510000  0.83930000  0.35670000  1
  H  H25  1  0.44630000  0.75160000  0.44630000  1
  H  H26  1  0.96540000  0.75090000  0.44480000  1
  H  H27  1  0.44480000  0.75090000  0.96540000  1
  H  H28  1  0.94490000  0.64330000  0.16070000  1
  H  H29  1  0.16070000  0.64330000  0.94490000  1
  H  H30  1  0.64200000  0.64200000  0.16030000  1
  H  H31  1  0.16030000  0.64200000  0.64200000  1
  H  H32  1  0.94500000  0.64150000  0.64150000  1
  H  H33  1  0.64150000  0.64150000  0.94500000  1
  H  H34  1  0.24910000  0.55520000  0.03460000  1
  H  H35  1  0.03460000  0.55520000  0.24910000  1
  H  H36  1  0.55370000  0.55370000  0.24840000  1
  H  H37  1  0.24840000  0.55370000  0.55370000  1
  H  H38  1  0.55240000  0.55240000  0.03380000  1
  H  H39  1  0.03380000  0.55240000  0.55240000  1
  H  H40  1  0.96620000  0.44760000  0.44760000  1
  H  H41  1  0.44760000  0.44760000  0.96620000  1
  H  H42  1  0.75160000  0.44630000  0.44630000  1
  H  H43  1  0.44630000  0.44630000  0.75160000  1
  H  H44  1  0.96540000  0.44480000  0.75090000  1
  H  H45  1  0.75090000  0.44480000  0.96540000  1
  H  H46  1  0.35850000  0.35850000  0.05500000  1
  H  H47  1  0.05500000  0.35850000  0.35850000  1
  H  H48  1  0.83970000  0.35800000  0.35800000  1
  H  H49  1  0.35800000  0.35800000  0.83970000  1
  H  H50  1  0.83930000  0.35670000  0.05510000  1
  H  H51  1  0.05510000  0.35670000  0.83930000  1
  H  H52  1  0.55520000  0.24910000  0.03460000  1
  H  H53  1  0.03460000  0.24910000  0.55520000  1
  H  H54  1  0.55370000  0.24840000  0.55370000  1
  H  H55  1  0.94490000  0.16070000  0.64330000  1
  H  H56  1  0.64330000  0.16070000  0.94490000  1
  H  H57  1  0.64200000  0.16030000  0.64200000  1
  H  H58  1  0.83930000  0.05510000  0.35670000  1
  H  H59  1  0.35670000  0.05510000  0.83930000  1
  H  H60  1  0.35850000  0.05500000  0.35850000  1
  H  H61  1  0.55520000  0.03460000  0.24910000  1
  H  H62  1  0.24910000  0.03460000  0.55520000  1
  H  H63  1  0.55240000  0.03380000  0.55240000  1
  C  C64  1  0.37601000  0.99361000  0.37601000  1
  C  C65  1  0.86557000  0.99357000  0.37447000  1
  C  C66  1  0.37447000  0.99357000  0.86557000  1
  C  C67  1  0.70907000  0.98557000  0.70907000  1
  C  C68  1  0.98540000  0.98540000  0.70910000  1
  C  C69  1  0.70910000  0.98540000  0.98540000  1
  C  C70  1  0.95626000  0.95626000  0.34836000  1
  C  C71  1  0.34836000  0.95626000  0.95626000  1
  C  C72  1  0.34934000  0.95614000  0.34934000  1
  C  C73  1  0.42980000  0.94000000  0.42980000  1
  C  C74  1  0.81235000  0.93945000  0.42775000  1
  C  C75  1  0.42775000  0.93945000  0.81235000  1
  C  C76  1  0.37576000  0.86586000  0.37576000  1
  C  C77  1  0.99357000  0.86557000  0.37447000  1
  C  C78  1  0.37447000  0.86557000  0.99357000  1
  C  C79  1  0.84925000  0.84925000  0.45495000  1
  C  C80  1  0.45495000  0.84925000  0.84925000  1
  C  C81  1  0.45653000  0.84883000  0.45653000  1
  C  C82  1  0.42903000  0.81293000  0.42903000  1
  C  C83  1  0.93945000  0.81235000  0.42775000  1
  C  C84  1  0.42775000  0.81235000  0.93945000  1
  C  C85  1  0.51439000  0.79119000  0.51439000  1
  C  C86  1  0.79099000  0.79099000  0.51459000  1
  C  C87  1  0.51459000  0.79099000  0.79099000  1
  C  C88  1  0.98540000  0.70910000  0.98540000  1
  C  C89  1  0.98557000  0.70907000  0.70907000  1
  C  C90  1  0.70907000  0.70907000  0.98557000  1
  C  C91  1  0.04374000  0.65164000  0.04374000  1
  C  C92  1  0.65066000  0.65066000  0.04386000  1
  C  C93  1  0.04386000  0.65066000  0.65066000  1
  C  C94  1  0.13443000  0.62553000  0.00643000  1
  C  C95  1  0.00643000  0.62553000  0.13443000  1
  C  C96  1  0.62424000  0.62424000  0.13414000  1
  C  C97  1  0.13414000  0.62424000  0.62424000  1
  C  C98  1  0.62399000  0.62399000  0.00639000  1
  C  C99  1  0.00639000  0.62399000  0.62399000  1
  C  C100  1  0.18765000  0.57225000  0.06055000  1
  C  C101  1  0.06055000  0.57225000  0.18765000  1
  C  C102  1  0.57097000  0.57097000  0.18707000  1
  C  C103  1  0.18707000  0.57097000  0.57097000  1
  C  C104  1  0.57020000  0.57020000  0.06000000  1
  C  C105  1  0.06000000  0.57020000  0.57020000  1
  C  C106  1  0.15075000  0.54505000  0.15075000  1
  C  C107  1  0.54347000  0.54347000  0.15117000  1
  C  C108  1  0.15117000  0.54347000  0.54347000  1
  C  C109  1  0.79099000  0.51459000  0.79099000  1
  C  C110  1  0.79119000  0.51439000  0.51439000  1
  C  C111  1  0.51439000  0.51439000  0.79119000  1
  C  C112  1  0.48561000  0.48561000  0.20881000  1
  C  C113  1  0.20881000  0.48561000  0.48561000  1
  C  C114  1  0.20901000  0.48541000  0.20901000  1
  C  C115  1  0.84883000  0.45653000  0.45653000  1
  C  C116  1  0.45653000  0.45653000  0.84883000  1
  C  C117  1  0.84925000  0.45495000  0.84925000  1
  C  C118  1  0.94000000  0.42980000  0.42980000  1
  C  C119  1  0.42980000  0.42980000  0.94000000  1
  C  C120  1  0.81293000  0.42903000  0.42903000  1
  C  C121  1  0.42903000  0.42903000  0.81293000  1
  C  C122  1  0.93945000  0.42775000  0.81235000  1
  C  C123  1  0.81235000  0.42775000  0.93945000  1
  C  C124  1  0.99361000  0.37601000  0.37601000  1
  C  C125  1  0.37601000  0.37601000  0.99361000  1
  C  C126  1  0.86586000  0.37576000  0.37576000  1
  C  C127  1  0.37576000  0.37576000  0.86586000  1
  C  C128  1  0.99357000  0.37447000  0.86557000  1
  C  C129  1  0.86557000  0.37447000  0.99357000  1
  C  C130  1  0.95614000  0.34934000  0.34934000  1
  C  C131  1  0.34934000  0.34934000  0.95614000  1
  C  C132  1  0.95626000  0.34836000  0.95626000  1
  C  C133  1  0.29093000  0.29093000  0.01443000  1
  C  C134  1  0.01443000  0.29093000  0.29093000  1
  C  C135  1  0.01460000  0.29090000  0.01460000  1
  C  C136  1  0.48541000  0.20901000  0.20901000  1
  C  C137  1  0.20901000  0.20901000  0.48541000  1
  C  C138  1  0.48561000  0.20881000  0.48561000  1
  C  C139  1  0.57225000  0.18765000  0.06055000  1
  C  C140  1  0.06055000  0.18765000  0.57225000  1
  C  C141  1  0.57097000  0.18707000  0.57097000  1
  C  C142  1  0.54347000  0.15117000  0.54347000  1
  C  C143  1  0.54505000  0.15075000  0.15075000  1
  C  C144  1  0.15075000  0.15075000  0.54505000  1
  C  C145  1  0.62553000  0.13443000  0.00643000  1
  C  C146  1  0.00643000  0.13443000  0.62553000  1
  C  C147  1  0.62424000  0.13414000  0.62424000  1
  C  C148  1  0.57225000  0.06055000  0.18765000  1
  C  C149  1  0.18765000  0.06055000  0.57225000  1
  C  C150  1  0.57020000  0.06000000  0.57020000  1
  C  C151  1  0.65066000  0.04386000  0.65066000  1
  C  C152  1  0.65164000  0.04374000  0.04374000  1
  C  C153  1  0.04374000  0.04374000  0.65164000  1
  C  C154  1  0.29090000  0.01460000  0.01460000  1
  C  C155  1  0.01460000  0.01460000  0.29090000  1
  C  C156  1  0.29093000  0.01443000  0.29093000  1
  C  C157  1  0.62553000  0.00643000  0.13443000  1
  C  C158  1  0.13443000  0.00643000  0.62553000  1
  C  C159  1  0.62399000  0.00639000  0.62399000  1
  O  O160  1  0.26860000  0.97635000  0.26860000  1
  O  O161  1  0.26835000  0.97615000  0.09705000  1
  O  O162  1  0.09705000  0.97615000  0.26835000  1
  O  O163  1  0.73165000  0.90295000  0.02385000  1
  O  O164  1  0.02385000  0.90295000  0.73165000  1
  O  O165  1  0.73073000  0.90247000  0.73073000  1
  O  O166  1  0.84726000  0.84726000  0.84726000  1
  O  O167  1  0.70787000  0.82967000  0.53677000  1
  O  O168  1  0.53677000  0.82967000  0.70787000  1
  O  O169  1  0.53696000  0.82951000  0.53696000  1
  O  O170  1  0.90295000  0.73165000  0.02385000  1
  O  O171  1  0.02385000  0.73165000  0.90295000  1
  O  O172  1  0.73140000  0.73140000  0.02365000  1
  O  O173  1  0.02365000  0.73140000  0.73140000  1
  O  O174  1  0.90247000  0.73073000  0.73073000  1
  O  O175  1  0.73073000  0.73073000  0.90247000  1
  O  O176  1  0.53625000  0.70805000  0.53625000  1
  O  O177  1  0.82967000  0.70787000  0.53677000  1
  O  O178  1  0.53677000  0.70787000  0.82967000  1
  O  O179  1  0.65253000  0.65253000  0.65253000  1
  O  O180  1  0.82951000  0.53696000  0.53696000  1
  O  O181  1  0.53696000  0.53696000  0.82951000  1
  O  O182  1  0.82967000  0.53677000  0.70787000  1
  O  O183  1  0.70787000  0.53677000  0.82967000  1
  O  O184  1  0.70805000  0.53625000  0.53625000  1
  O  O185  1  0.53625000  0.53625000  0.70805000  1
  O  O186  1  0.46375000  0.46375000  0.29195000  1
  O  O187  1  0.29195000  0.46375000  0.46375000  1
  O  O188  1  0.29213000  0.46323000  0.17033000  1
  O  O189  1  0.17033000  0.46323000  0.29213000  1
  O  O190  1  0.46304000  0.46304000  0.17049000  1
  O  O191  1  0.17049000  0.46304000  0.46304000  1
  O  O192  1  0.34747000  0.34747000  0.34747000  1
  O  O193  1  0.46323000  0.29213000  0.17033000  1
  O  O194  1  0.17033000  0.29213000  0.46323000  1
  O  O195  1  0.46375000  0.29195000  0.46375000  1
  O  O196  1  0.26927000  0.26927000  0.09753000  1
  O  O197  1  0.09753000  0.26927000  0.26927000  1
  O  O198  1  0.97635000  0.26860000  0.26860000  1
  O  O199  1  0.26860000  0.26860000  0.97635000  1
  O  O200  1  0.97615000  0.26835000  0.09705000  1
  O  O201  1  0.09705000  0.26835000  0.97615000  1
  O  O202  1  0.46304000  0.17049000  0.46304000  1
  O  O203  1  0.46323000  0.17033000  0.29213000  1
  O  O204  1  0.29213000  0.17033000  0.46323000  1
  O  O205  1  0.15274000  0.15274000  0.15274000  1
  O  O206  1  0.26927000  0.09753000  0.26927000  1
  O  O207  1  0.97615000  0.09705000  0.26835000  1
  O  O208  1  0.26835000  0.09705000  0.97615000  1
  O  O209  1  0.90295000  0.02385000  0.73165000  1
  O  O210  1  0.73165000  0.02385000  0.90295000  1
  O  O211  1  0.73140000  0.02365000  0.73140000  1
