# generated using pymatgen
data_ZnH12(C5N2)3
_symmetry_space_group_name_H-M   'P 1'
_cell_length_a   7.54810000
_cell_length_b   10.88780000
_cell_length_c   19.04600000
_cell_angle_alpha   79.94800000
_cell_angle_beta   79.57000000
_cell_angle_gamma   73.07700000
_symmetry_Int_Tables_number   1
_chemical_formula_structural   ZnH12(C5N2)3
_chemical_formula_sum   'Zn2 H24 C30 N12'
_cell_volume   1460.31822806
_cell_formula_units_Z   2
loop_
 _symmetry_equiv_pos_site_id
 _symmetry_equiv_pos_as_xyz
  1  'x, y, z'
loop_
 _atom_site_type_symbol
 _atom_site_label
 _atom_site_symmetry_multiplicity
 _atom_site_fract_x
 _atom_site_fract_y
 _atom_site_fract_z
 _atom_site_occupancy
  Zn  Zn0  1  0.39281000  0.78440000  0.45164000  1
  Zn  Zn1  1  0.71636000  0.28664000  0.96788000  1
  H  H2  1  0.05120000  0.74380000  0.55930000  1
  H  H3  1  0.05330000  0.55740000  0.65330000  1
  H  H4  1  0.08240000  0.56690000  0.37170000  1
  H  H5  1  0.11340000  0.50600000  0.24100000  1
  H  H6  1  0.13600000  0.16720000  0.98000000  1
  H  H7  1  0.21720000  0.72540000  0.05300000  1
  H  H8  1  0.22930000  0.33270000  0.18330000  1
  H  H9  1  0.28130000  0.96960000  0.05530000  1
  H  H10  1  0.33140000  0.06090000  0.51280000  1
  H  H11  1  0.35820000  0.24650000  0.55100000  1
  H  H12  1  0.36280000  0.40260000  0.72730000  1
  H  H13  1  0.45210000  0.55300000  0.02290000  1
  H  H14  1  0.45480000  0.19340000  0.10460000  1
  H  H15  1  0.45820000  0.00360000  0.85520000  1
  H  H16  1  0.49390000  0.01410000  0.73150000  1
  H  H17  1  0.50520000  0.47730000  0.51420000  1
  H  H18  1  0.56400000  0.34330000  0.81880000  1
  H  H19  1  0.57260000  0.03880000  0.95920000  1
  H  H20  1  0.60010000  0.70950000  0.58600000  1
  H  H21  1  0.61710000  0.78670000  0.30140000  1
  H  H22  1  0.61850000  0.85520000  0.66870000  1
  H  H23  1  0.74120000  0.01510000  0.08390000  1
  H  H24  1  0.82940000  0.59730000  0.47560000  1
  H  H25  1  0.86040000  0.89040000  0.21580000  1
  C  C26  1  0.04400000  0.82670000  0.12920000  1
  C  C27  1  0.07320000  0.11260000  0.01090000  1
  C  C28  1  0.09570000  0.58640000  0.21290000  1
  C  C29  1  0.14310000  0.56260000  0.61330000  1
  C  C30  1  0.14490000  0.66630000  0.56150000  1
  C  C31  1  0.15450000  0.00190000  0.05150000  1
  C  C32  1  0.15880000  0.71850000  0.10030000  1
  C  C33  1  0.18610000  0.59810000  0.14310000  1
  C  C34  1  0.30170000  0.35910000  0.14160000  1
  C  C35  1  0.35160000  0.34110000  0.63360000  1
  C  C36  1  0.37560000  0.23530000  0.59910000  1
  C  C37  1  0.37990000  0.32990000  0.70480000  1
  C  C38  1  0.38970000  0.52110000  0.53670000  1
  C  C39  1  0.39800000  0.99110000  0.54170000  1
  C  C40  1  0.42510000  0.28340000  0.09800000  1
  C  C41  1  0.42520000  0.11410000  0.63570000  1
  C  C42  1  0.42580000  0.48090000  0.05220000  1
  C  C43  1  0.43490000  0.20520000  0.74100000  1
  C  C44  1  0.45750000  0.09700000  0.70690000  1
  C  C45  1  0.49120000  0.07710000  0.86050000  1
  C  C46  1  0.54750000  0.79860000  0.58180000  1
  C  C47  1  0.55230000  0.26240000  0.84120000  1
  C  C48  1  0.55680000  0.87840000  0.62830000  1
  C  C49  1  0.55830000  0.09590000  0.91690000  1
  C  C50  1  0.69970000  0.73560000  0.33250000  1
  C  C51  1  0.81730000  0.63050000  0.42770000  1
  C  C52  1  0.85780000  0.02970000  0.06680000  1
  C  C53  1  0.94530000  0.81800000  0.19820000  1
  C  C54  1  0.95890000  0.61530000  0.37030000  1
  C  C55  1  0.97840000  0.69600000  0.24040000  1
  N  N56  1  0.01970000  0.94850000  0.08480000  1
  N  N57  1  0.29730000  0.46990000  0.59450000  1
  N  N58  1  0.30120000  0.64020000  0.51440000  1
  N  N59  1  0.30130000  0.48570000  0.11330000  1
  N  N60  1  0.44650000  0.87220000  0.52710000  1
  N  N61  1  0.45390000  0.00250000  0.60250000  1
  N  N62  1  0.48060000  0.18480000  0.81270000  1
  N  N63  1  0.50550000  0.35870000  0.03970000  1
  N  N64  1  0.60230000  0.21030000  0.90310000  1
  N  N65  1  0.65260000  0.70450000  0.40130000  1
  N  N66  1  0.88270000  0.13060000  0.02290000  1
  N  N67  1  0.88370000  0.68380000  0.31230000  1
