# generated using pymatgen
data_MnH8C19(NO3)2
_symmetry_space_group_name_H-M   'P 1'
_cell_length_a   5.01690000
_cell_length_b   20.69490000
_cell_length_c   24.98510000
_cell_angle_alpha   90.00000000
_cell_angle_beta   90.00000000
_cell_angle_gamma   95.72100000
_symmetry_Int_Tables_number   1
_chemical_formula_structural   MnH8C19(NO3)2
_chemical_formula_sum   'Mn4 H32 C76 N8 O24'
_cell_volume   2581.13836637
_cell_formula_units_Z   4
loop_
 _symmetry_equiv_pos_site_id
 _symmetry_equiv_pos_as_xyz
  1  'x, y, z'
loop_
 _atom_site_type_symbol
 _atom_site_label
 _atom_site_symmetry_multiplicity
 _atom_site_fract_x
 _atom_site_fract_y
 _atom_site_fract_z
 _atom_site_occupancy
  Mn  Mn0  1  0.17934000  0.06154000  0.96045000  1
  Mn  Mn1  1  0.32066000  0.43846000  0.46045000  1
  Mn  Mn2  1  0.67934000  0.56154000  0.53955000  1
  Mn  Mn3  1  0.82066000  0.93846000  0.03955000  1
  H  H4  1  0.00200000  0.75620000  0.94880000  1
  H  H5  1  0.01460000  0.04320000  0.14070000  1
  H  H6  1  0.06000000  0.68730000  0.87740000  1
  H  H7  1  0.06420000  0.88230000  0.79400000  1
  H  H8  1  0.06970000  0.43220000  0.34110000  1
  H  H9  1  0.07990000  0.36980000  0.26320000  1
  H  H10  1  0.18160000  0.84160000  0.09760000  1
  H  H11  1  0.19170000  0.77920000  0.17550000  1
  H  H12  1  0.30830000  0.72080000  0.67550000  1
  H  H13  1  0.31840000  0.65840000  0.59760000  1
  H  H14  1  0.42010000  0.13020000  0.76320000  1
  H  H15  1  0.43030000  0.06780000  0.84110000  1
  H  H16  1  0.43580000  0.61770000  0.29400000  1
  H  H17  1  0.44000000  0.81270000  0.37740000  1
  H  H18  1  0.48540000  0.45680000  0.64070000  1
  H  H19  1  0.49800000  0.74380000  0.44880000  1
  H  H20  1  0.50200000  0.25620000  0.55120000  1
  H  H21  1  0.51460000  0.54320000  0.35930000  1
  H  H22  1  0.56000000  0.18730000  0.62260000  1
  H  H23  1  0.56420000  0.38230000  0.70600000  1
  H  H24  1  0.56970000  0.93220000  0.15890000  1
  H  H25  1  0.57990000  0.86980000  0.23680000  1
  H  H26  1  0.68160000  0.34160000  0.40240000  1
  H  H27  1  0.69170000  0.27920000  0.32450000  1
  H  H28  1  0.80830000  0.22080000  0.82450000  1
  H  H29  1  0.81840000  0.15840000  0.90240000  1
  H  H30  1  0.92010000  0.63020000  0.73680000  1
  H  H31  1  0.93030000  0.56780000  0.65890000  1
  H  H32  1  0.93580000  0.11770000  0.20600000  1
  H  H33  1  0.94000000  0.31270000  0.12260000  1
  H  H34  1  0.98540000  0.95680000  0.85930000  1
  H  H35  1  0.99800000  0.24380000  0.05120000  1
  C  C36  1  0.00040000  0.34450000  0.60660000  1
  C  C37  1  0.04720000  0.30150000  0.64950000  1
  C  C38  1  0.05940000  0.84730000  0.12580000  1
  C  C39  1  0.06540000  0.81020000  0.17210000  1
  C  C40  1  0.08200000  0.12670000  0.18200000  1
  C  C41  1  0.08900000  0.80030000  0.29840000  1
  C  C42  1  0.10670000  0.46280000  0.57260000  1
  C  C43  1  0.11300000  0.18140000  0.78650000  1
  C  C44  1  0.12000000  0.75720000  0.34530000  1
  C  C45  1  0.12680000  0.08290000  0.14290000  1
  C  C46  1  0.14100000  0.76790000  0.92370000  1
  C  C47  1  0.16650000  0.40470000  0.60620000  1
  C  C48  1  0.17500000  0.72640000  0.88150000  1
  C  C49  1  0.19600000  0.40110000  0.33780000  1
  C  C50  1  0.20000000  0.22780000  0.23190000  1
  C  C51  1  0.20000000  0.67410000  0.43090000  1
  C  C52  1  0.20200000  0.36400000  0.29150000  1
  C  C53  1  0.24700000  0.18420000  0.18690000  1
  C  C54  1  0.24930000  0.63930000  0.48250000  1
  C  C55  1  0.25070000  0.86070000  0.98250000  1
  C  C56  1  0.25300000  0.31580000  0.68690000  1
  C  C57  1  0.29800000  0.13600000  0.79150000  1
  C  C58  1  0.30000000  0.27220000  0.73190000  1
  C  C59  1  0.30000000  0.82590000  0.93090000  1
  C  C60  1  0.30400000  0.09890000  0.83780000  1
  C  C61  1  0.32500000  0.77360000  0.38150000  1
  C  C62  1  0.33350000  0.09530000  0.10620000  1
  C  C63  1  0.35900000  0.73210000  0.42370000  1
  C  C64  1  0.37320000  0.41710000  0.64290000  1
  C  C65  1  0.38000000  0.74280000  0.84530000  1
  C  C66  1  0.38700000  0.31860000  0.28650000  1
  C  C67  1  0.39330000  0.03720000  0.07260000  1
  C  C68  1  0.41100000  0.69970000  0.79840000  1
  C  C69  1  0.41800000  0.37330000  0.68200000  1
  C  C70  1  0.43460000  0.68980000  0.67210000  1
  C  C71  1  0.44060000  0.65270000  0.62580000  1
  C  C72  1  0.45280000  0.19850000  0.14950000  1
  C  C73  1  0.49960000  0.15550000  0.10660000  1
  C  C74  1  0.50040000  0.84450000  0.89340000  1
  C  C75  1  0.54720000  0.80150000  0.85050000  1
  C  C76  1  0.55940000  0.34730000  0.37420000  1
  C  C77  1  0.56540000  0.31020000  0.32790000  1
  C  C78  1  0.58200000  0.62670000  0.31800000  1
  C  C79  1  0.58900000  0.30030000  0.20160000  1
  C  C80  1  0.60670000  0.96280000  0.92740000  1
  C  C81  1  0.61300000  0.68140000  0.71350000  1
  C  C82  1  0.62000000  0.25720000  0.15470000  1
  C  C83  1  0.62680000  0.58290000  0.35710000  1
  C  C84  1  0.64100000  0.26790000  0.57630000  1
  C  C85  1  0.66650000  0.90470000  0.89380000  1
  C  C86  1  0.67500000  0.22640000  0.61850000  1
  C  C87  1  0.69600000  0.90110000  0.16220000  1
  C  C88  1  0.70000000  0.17410000  0.06910000  1
  C  C89  1  0.70000000  0.72780000  0.26810000  1
  C  C90  1  0.70200000  0.86400000  0.20850000  1
  C  C91  1  0.74700000  0.68420000  0.31310000  1
  C  C92  1  0.74930000  0.13930000  0.01750000  1
  C  C93  1  0.75070000  0.36070000  0.51750000  1
  C  C94  1  0.75300000  0.81580000  0.81310000  1
  C  C95  1  0.79800000  0.63600000  0.70850000  1
  C  C96  1  0.80000000  0.32590000  0.56910000  1
  C  C97  1  0.80000000  0.77220000  0.76810000  1
  C  C98  1  0.80400000  0.59890000  0.66220000  1
  C  C99  1  0.82500000  0.27360000  0.11850000  1
  C  C100  1  0.83350000  0.59530000  0.39380000  1
  C  C101  1  0.85900000  0.23210000  0.07630000  1
  C  C102  1  0.87320000  0.91710000  0.85710000  1
  C  C103  1  0.88000000  0.24280000  0.65470000  1
  C  C104  1  0.88700000  0.81860000  0.21350000  1
  C  C105  1  0.89330000  0.53720000  0.42740000  1
  C  C106  1  0.91100000  0.19970000  0.70160000  1
  C  C107  1  0.91800000  0.87330000  0.81800000  1
  C  C108  1  0.93460000  0.18980000  0.82790000  1
  C  C109  1  0.94060000  0.15270000  0.87420000  1
  C  C110  1  0.95280000  0.69850000  0.35050000  1
  C  C111  1  0.99960000  0.65550000  0.39340000  1
  N  N112  1  0.10570000  0.21920000  0.73720000  1
  N  N113  1  0.12530000  0.10720000  0.87910000  1
  N  N114  1  0.37470000  0.39280000  0.37910000  1
  N  N115  1  0.39430000  0.28080000  0.23720000  1
  N  N116  1  0.60570000  0.71920000  0.76280000  1
  N  N117  1  0.62530000  0.60720000  0.62090000  1
  N  N118  1  0.87470000  0.89280000  0.12090000  1
  N  N119  1  0.89430000  0.78080000  0.26280000  1
  O  O120  1  0.01490000  0.86370000  0.99400000  1
  O  O121  1  0.01660000  0.21800000  0.26390000  1
  O  O122  1  0.05250000  0.62180000  0.51130000  1
  O  O123  1  0.12000000  0.51870000  0.42040000  1
  O  O124  1  0.21430000  0.00960000  0.04200000  1
  O  O125  1  0.23490000  0.85130000  0.29310000  1
  O  O126  1  0.26510000  0.64870000  0.79310000  1
  O  O127  1  0.28570000  0.49040000  0.54200000  1
  O  O128  1  0.38000000  0.98130000  0.92040000  1
  O  O129  1  0.44750000  0.87820000  0.01130000  1
  O  O130  1  0.48340000  0.28200000  0.76390000  1
  O  O131  1  0.48510000  0.63630000  0.49400000  1
  O  O132  1  0.51490000  0.36370000  0.50600000  1
  O  O133  1  0.51660000  0.71800000  0.23610000  1
  O  O134  1  0.55250000  0.12180000  0.98870000  1
  O  O135  1  0.62000000  0.01870000  0.07960000  1
  O  O136  1  0.71430000  0.50960000  0.45800000  1
  O  O137  1  0.73490000  0.35130000  0.20690000  1
  O  O138  1  0.76510000  0.14870000  0.70690000  1
  O  O139  1  0.78570000  0.99040000  0.95800000  1
  O  O140  1  0.88000000  0.48130000  0.57960000  1
  O  O141  1  0.94750000  0.37820000  0.48870000  1
  O  O142  1  0.98340000  0.78200000  0.73610000  1
  O  O143  1  0.98510000  0.13630000  0.00600000  1
