# generated using pymatgen
data_Tb2H24C26O17
_symmetry_space_group_name_H-M   'P 1'
_cell_length_a   11.85500000
_cell_length_b   12.41400000
_cell_length_c   12.47300000
_cell_angle_alpha   90.00000000
_cell_angle_beta   99.01000000
_cell_angle_gamma   90.00000000
_symmetry_Int_Tables_number   1
_chemical_formula_structural   Tb2H24C26O17
_chemical_formula_sum   'Tb4 H48 C52 O34'
_cell_volume   1812.97634095
_cell_formula_units_Z   2
loop_
 _symmetry_equiv_pos_site_id
 _symmetry_equiv_pos_as_xyz
  1  'x, y, z'
loop_
 _atom_site_type_symbol
 _atom_site_label
 _atom_site_symmetry_multiplicity
 _atom_site_fract_x
 _atom_site_fract_y
 _atom_site_fract_z
 _atom_site_occupancy
  Tb  Tb0  1  0.35831000  0.72965000  0.81307000  1
  Tb  Tb1  1  0.37362000  0.44540000  0.13027000  1
  Tb  Tb2  1  0.62638000  0.94540000  0.86973000  1
  Tb  Tb3  1  0.64169000  0.22965000  0.18693000  1
  H  H4  1  0.00040000  0.03390000  0.07220000  1
  H  H5  1  0.00990000  0.56340000  0.25050000  1
  H  H6  1  0.10910000  0.34610000  0.74510000  1
  H  H7  1  0.13100000  0.46720000  0.77750000  1
  H  H8  1  0.14450000  0.37780000  0.86740000  1
  H  H9  1  0.14560000  0.85110000  0.15620000  1
  H  H10  1  0.14760000  0.72910000  0.12430000  1
  H  H11  1  0.16710000  0.81790000  0.03980000  1
  H  H12  1  0.19540000  0.66370000  0.58810000  1
  H  H13  1  0.22850000  0.61150000  0.68640000  1
  H  H14  1  0.28630000  0.10620000  0.95300000  1
  H  H15  1  0.29480000  0.02900000  0.59010000  1
  H  H16  1  0.29860000  0.13080000  0.32100000  1
  H  H17  1  0.30170000  0.30720000  0.80130000  1
  H  H18  1  0.31950000  0.15230000  0.60740000  1
  H  H19  1  0.32690000  0.40250000  0.48080000  1
  H  H20  1  0.34050000  0.86610000  0.14570000  1
  H  H21  1  0.34100000  0.01300000  0.30530000  1
  H  H22  1  0.35490000  0.77830000  0.46860000  1
  H  H23  1  0.36330000  0.12050000  0.79860000  1
  H  H24  1  0.36770000  0.05250000  0.12740000  1
  H  H25  1  0.41870000  0.06860000  0.63540000  1
  H  H26  1  0.42660000  0.10980000  0.30960000  1
  H  H27  1  0.47980000  0.33010000  0.78380000  1
  H  H28  1  0.52020000  0.83010000  0.21620000  1
  H  H29  1  0.57340000  0.60980000  0.69040000  1
  H  H30  1  0.58130000  0.56860000  0.36460000  1
  H  H31  1  0.63230000  0.55250000  0.87260000  1
  H  H32  1  0.63670000  0.62050000  0.20140000  1
  H  H33  1  0.64510000  0.27830000  0.53140000  1
  H  H34  1  0.65900000  0.51300000  0.69470000  1
  H  H35  1  0.65950000  0.36610000  0.85430000  1
  H  H36  1  0.67310000  0.90250000  0.51920000  1
  H  H37  1  0.68050000  0.65230000  0.39260000  1
  H  H38  1  0.69830000  0.80720000  0.19870000  1
  H  H39  1  0.70140000  0.63080000  0.67900000  1
  H  H40  1  0.70520000  0.52900000  0.40990000  1
  H  H41  1  0.71370000  0.60620000  0.04700000  1
  H  H42  1  0.77150000  0.11150000  0.31360000  1
  H  H43  1  0.80460000  0.16370000  0.41190000  1
  H  H44  1  0.83290000  0.31790000  0.96020000  1
  H  H45  1  0.85240000  0.22910000  0.87570000  1
  H  H46  1  0.85440000  0.35110000  0.84380000  1
  H  H47  1  0.85550000  0.87780000  0.13260000  1
  H  H48  1  0.86900000  0.96720000  0.22250000  1
  H  H49  1  0.89090000  0.84610000  0.25490000  1
  H  H50  1  0.99010000  0.06340000  0.74950000  1
  H  H51  1  0.99960000  0.53390000  0.92780000  1
  C  C52  1  0.02290000  0.54540000  0.09150000  1
  C  C53  1  0.03110000  0.06520000  0.81950000  1
  C  C54  1  0.03730000  0.04800000  0.01320000  1
  C  C55  1  0.14750000  0.08780000  0.83650000  1
  C  C56  1  0.14870000  0.51920000  0.10850000  1
  C  C57  1  0.15280000  0.07200000  0.02900000  1
  C  C58  1  0.15450000  0.39430000  0.79430000  1
  C  C59  1  0.18030000  0.79860000  0.11520000  1
  C  C60  1  0.20850000  0.09120000  0.94180000  1
  C  C61  1  0.27860000  0.38160000  0.78310000  1
  C  C62  1  0.30840000  0.79470000  0.15560000  1
  C  C63  1  0.31250000  0.07290000  0.75030000  1
  C  C64  1  0.31970000  0.10010000  0.16380000  1
  C  C65  1  0.32750000  0.95720000  0.78980000  1
  C  C66  1  0.33880000  0.08150000  0.63520000  1
  C  C67  1  0.33910000  0.21560000  0.13520000  1
  C  C68  1  0.34920000  0.08720000  0.28620000  1
  C  C69  1  0.35620000  0.45790000  0.85880000  1
  C  C70  1  0.36830000  0.71240000  0.09210000  1
  C  C71  1  0.38810000  0.36990000  0.63920000  1
  C  C72  1  0.38920000  0.37540000  0.52750000  1
  C  C73  1  0.41890000  0.80270000  0.44130000  1
  C  C74  1  0.42030000  0.80290000  0.33080000  1
  C  C75  1  0.48200000  0.33370000  0.70960000  1
  C  C76  1  0.48510000  0.33950000  0.48800000  1
  C  C77  1  0.48880000  0.34160000  0.36900000  1
  C  C78  1  0.51120000  0.84160000  0.63100000  1
  C  C79  1  0.51490000  0.83950000  0.51200000  1
  C  C80  1  0.51800000  0.83370000  0.29040000  1
  C  C81  1  0.57970000  0.30290000  0.66920000  1
  C  C82  1  0.58110000  0.30270000  0.55870000  1
  C  C83  1  0.61080000  0.87540000  0.47250000  1
  C  C84  1  0.61190000  0.86990000  0.36080000  1
  C  C85  1  0.63170000  0.21240000  0.90790000  1
  C  C86  1  0.64380000  0.95790000  0.14120000  1
  C  C87  1  0.65080000  0.58720000  0.71380000  1
  C  C88  1  0.66090000  0.71560000  0.86480000  1
  C  C89  1  0.66120000  0.58150000  0.36480000  1
  C  C90  1  0.67250000  0.45720000  0.21020000  1
  C  C91  1  0.68030000  0.60010000  0.83620000  1
  C  C92  1  0.68750000  0.57290000  0.24970000  1
  C  C93  1  0.69160000  0.29470000  0.84440000  1
  C  C94  1  0.72140000  0.88160000  0.21690000  1
  C  C95  1  0.79150000  0.59120000  0.05820000  1
  C  C96  1  0.81970000  0.29860000  0.88480000  1
  C  C97  1  0.84550000  0.89430000  0.20570000  1
  C  C98  1  0.84720000  0.57200000  0.97100000  1
  C  C99  1  0.85130000  0.01920000  0.89150000  1
  C  C100  1  0.85250000  0.58780000  0.16350000  1
  C  C101  1  0.96270000  0.54800000  0.98680000  1
  C  C102  1  0.96890000  0.56520000  0.18050000  1
  C  C103  1  0.97710000  0.04540000  0.90850000  1
  O  O104  1  0.19620000  0.10570000  0.74700000  1
  O  O105  1  0.20010000  0.52090000  0.02650000  1
  O  O106  1  0.20030000  0.49630000  0.20060000  1
  O  O107  1  0.20330000  0.07040000  0.13610000  1
  O  O108  1  0.23640000  0.66840000  0.65030000  1
  O  O109  1  0.24990000  0.89000000  0.76700000  1
  O  O110  1  0.25850000  0.28270000  0.12290000  1
  O  O111  1  0.28780000  0.40020000  0.67290000  1
  O  O112  1  0.32110000  0.77280000  0.26730000  1
  O  O113  1  0.37360000  0.73760000  0.99660000  1
  O  O114  1  0.37980000  0.54710000  0.82660000  1
  O  O115  1  0.38980000  0.42120000  0.95390000  1
  O  O116  1  0.40820000  0.62710000  0.13900000  1
  O  O117  1  0.41730000  0.39870000  0.31070000  1
  O  O118  1  0.42360000  0.93130000  0.84490000  1
  O  O119  1  0.43540000  0.78460000  0.66370000  1
  O  O120  1  0.44060000  0.24580000  0.12820000  1
  O  O121  1  0.55940000  0.74580000  0.87180000  1
  O  O122  1  0.56460000  0.28460000  0.33630000  1
  O  O123  1  0.57640000  0.43130000  0.15510000  1
  O  O124  1  0.58270000  0.89870000  0.68930000  1
  O  O125  1  0.59180000  0.12710000  0.86100000  1
  O  O126  1  0.61020000  0.92120000  0.04610000  1
  O  O127  1  0.62020000  0.04710000  0.17340000  1
  O  O128  1  0.62640000  0.23760000  0.00340000  1
  O  O129  1  0.67890000  0.27280000  0.73270000  1
  O  O130  1  0.71220000  0.90020000  0.32710000  1
  O  O131  1  0.74150000  0.78270000  0.87710000  1
  O  O132  1  0.75010000  0.39000000  0.23300000  1
  O  O133  1  0.76360000  0.16840000  0.34970000  1
  O  O134  1  0.79670000  0.57040000  0.86390000  1
  O  O135  1  0.79970000  0.99630000  0.79940000  1
  O  O136  1  0.79990000  0.02090000  0.97350000  1
  O  O137  1  0.80380000  0.60570000  0.25300000  1
