# generated using pymatgen
data_Ga2P2O8F
_symmetry_space_group_name_H-M   'P 1'
_cell_length_a   10.19700000
_cell_length_b   17.47200000
_cell_length_c   27.31600000
_cell_angle_alpha   90.00000000
_cell_angle_beta   90.00000000
_cell_angle_gamma   90.00000000
_symmetry_Int_Tables_number   1
_chemical_formula_structural   Ga2P2O8F
_chemical_formula_sum   'Ga32 P32 O128 F16'
_cell_volume   4866.67275494
_cell_formula_units_Z   16
loop_
 _symmetry_equiv_pos_site_id
 _symmetry_equiv_pos_as_xyz
  1  'x, y, z'
loop_
 _atom_site_type_symbol
 _atom_site_label
 _atom_site_symmetry_multiplicity
 _atom_site_fract_x
 _atom_site_fract_y
 _atom_site_fract_z
 _atom_site_occupancy
  Ga  Ga0  1  0.09750000  0.57650000  0.94600000  1
  Ga  Ga1  1  0.59750000  0.42350000  0.94600000  1
  Ga  Ga2  1  0.38950000  0.67930000  0.84410000  1
  Ga  Ga3  1  0.88950000  0.32070000  0.84410000  1
  Ga  Ga4  1  0.91160000  0.76080000  0.77970000  1
  Ga  Ga5  1  0.41160000  0.23920000  0.77970000  1
  Ga  Ga6  1  0.07400000  0.58730000  0.75850000  1
  Ga  Ga7  1  0.57400000  0.41270000  0.75850000  1
  Ga  Ga8  1  0.57400000  0.91270000  0.74150000  1
  Ga  Ga9  1  0.07400000  0.08730000  0.74150000  1
  Ga  Ga10  1  0.41160000  0.73920000  0.72030000  1
  Ga  Ga11  1  0.91160000  0.26080000  0.72030000  1
  Ga  Ga12  1  0.88950000  0.82070000  0.65590000  1
  Ga  Ga13  1  0.38950000  0.17930000  0.65590000  1
  Ga  Ga14  1  0.59750000  0.92350000  0.55400000  1
  Ga  Ga15  1  0.09750000  0.07650000  0.55400000  1
  Ga  Ga16  1  0.90250000  0.92350000  0.44600000  1
  Ga  Ga17  1  0.40250000  0.07650000  0.44600000  1
  Ga  Ga18  1  0.61050000  0.82070000  0.34410000  1
  Ga  Ga19  1  0.11050000  0.17930000  0.34410000  1
  Ga  Ga20  1  0.08840000  0.73920000  0.27970000  1
  Ga  Ga21  1  0.58840000  0.26080000  0.27970000  1
  Ga  Ga22  1  0.92600000  0.91270000  0.25850000  1
  Ga  Ga23  1  0.42600000  0.08730000  0.25850000  1
  Ga  Ga24  1  0.42600000  0.58730000  0.24150000  1
  Ga  Ga25  1  0.92600000  0.41270000  0.24150000  1
  Ga  Ga26  1  0.58840000  0.76080000  0.22030000  1
  Ga  Ga27  1  0.08840000  0.23920000  0.22030000  1
  Ga  Ga28  1  0.11050000  0.67930000  0.15590000  1
  Ga  Ga29  1  0.61050000  0.32070000  0.15590000  1
  Ga  Ga30  1  0.40250000  0.57650000  0.05400000  1
  Ga  Ga31  1  0.90250000  0.42350000  0.05400000  1
  P  P32  1  0.40520000  0.57420000  0.94040000  1
  P  P33  1  0.90520000  0.42580000  0.94040000  1
  P  P34  1  0.09600000  0.68020000  0.85840000  1
  P  P35  1  0.59600000  0.31980000  0.85840000  1
  P  P36  1  0.61400000  0.77340000  0.80400000  1
  P  P37  1  0.11400000  0.22660000  0.80400000  1
  P  P38  1  0.38950000  0.56570000  0.75520000  1
  P  P39  1  0.88950000  0.43430000  0.75520000  1
  P  P40  1  0.88950000  0.93430000  0.74480000  1
  P  P41  1  0.38950000  0.06570000  0.74480000  1
  P  P42  1  0.11400000  0.72660000  0.69600000  1
  P  P43  1  0.61400000  0.27340000  0.69600000  1
  P  P44  1  0.59600000  0.81980000  0.64160000  1
  P  P45  1  0.09600000  0.18020000  0.64160000  1
  P  P46  1  0.90520000  0.92580000  0.55960000  1
  P  P47  1  0.40520000  0.07420000  0.55960000  1
  P  P48  1  0.59480000  0.92580000  0.44040000  1
  P  P49  1  0.09480000  0.07420000  0.44040000  1
  P  P50  1  0.90400000  0.81980000  0.35840000  1
  P  P51  1  0.40400000  0.18020000  0.35840000  1
  P  P52  1  0.38600000  0.72660000  0.30400000  1
  P  P53  1  0.88600000  0.27340000  0.30400000  1
  P  P54  1  0.61050000  0.93430000  0.25520000  1
  P  P55  1  0.11050000  0.06570000  0.25520000  1
  P  P56  1  0.11050000  0.56570000  0.24480000  1
  P  P57  1  0.61050000  0.43430000  0.24480000  1
  P  P58  1  0.88600000  0.77340000  0.19600000  1
  P  P59  1  0.38600000  0.22660000  0.19600000  1
  P  P60  1  0.40400000  0.68020000  0.14160000  1
  P  P61  1  0.90400000  0.31980000  0.14160000  1
  P  P62  1  0.09480000  0.57420000  0.05960000  1
  P  P63  1  0.59480000  0.42580000  0.05960000  1
  O  O64  1  0.41120000  0.61160000  0.99150000  1
  O  O65  1  0.91120000  0.38840000  0.99150000  1
  O  O66  1  0.49170000  0.50420000  0.93870000  1
  O  O67  1  0.99170000  0.49580000  0.93870000  1
  O  O68  1  0.26400000  0.54700000  0.93030000  1
  O  O69  1  0.76400000  0.45300000  0.93030000  1
  O  O70  1  0.03040000  0.64970000  0.90630000  1
  O  O71  1  0.53040000  0.35030000  0.90630000  1
  O  O72  1  0.45210000  0.63210000  0.90410000  1
  O  O73  1  0.95210000  0.36790000  0.90410000  1
  O  O74  1  0.23310000  0.70830000  0.87310000  1
  O  O75  1  0.73310000  0.29170000  0.87310000  1
  O  O76  1  0.52720000  0.74790000  0.84730000  1
  O  O77  1  0.02720000  0.25210000  0.84730000  1
  O  O78  1  0.01270000  0.74500000  0.83930000  1
  O  O79  1  0.51270000  0.25500000  0.83930000  1
  O  O80  1  0.11210000  0.61210000  0.82350000  1
  O  O81  1  0.61210000  0.38790000  0.82350000  1
  O  O82  1  0.75450000  0.75100000  0.81720000  1
  O  O83  1  0.25450000  0.24900000  0.81720000  1
  O  O84  1  0.42150000  0.59150000  0.80820000  1
  O  O85  1  0.92150000  0.40850000  0.80820000  1
  O  O86  1  0.60160000  0.86060000  0.79920000  1
  O  O87  1  0.10160000  0.13940000  0.79920000  1
  O  O88  1  0.91290000  0.87190000  0.78270000  1
  O  O89  1  0.41290000  0.12810000  0.78270000  1
  O  O90  1  0.98400000  0.99920000  0.75710000  1
  O  O91  1  0.48400000  0.00080000  0.75710000  1
  O  O92  1  0.57390000  0.73390000  0.75680000  1
  O  O93  1  0.07390000  0.26610000  0.75680000  1
  O  O94  1  0.24780000  0.53480000  0.75350000  1
  O  O95  1  0.74780000  0.46520000  0.75350000  1
  O  O96  1  0.74780000  0.96520000  0.74650000  1
  O  O97  1  0.24780000  0.03480000  0.74650000  1
  O  O98  1  0.07390000  0.76610000  0.74320000  1
  O  O99  1  0.57390000  0.23390000  0.74320000  1
  O  O100  1  0.48400000  0.50080000  0.74290000  1
  O  O101  1  0.98400000  0.49920000  0.74290000  1
  O  O102  1  0.41290000  0.62810000  0.71730000  1
  O  O103  1  0.91290000  0.37190000  0.71730000  1
  O  O104  1  0.10160000  0.63940000  0.70080000  1
  O  O105  1  0.60160000  0.36060000  0.70080000  1
  O  O106  1  0.92150000  0.90850000  0.69180000  1
  O  O107  1  0.42150000  0.09150000  0.69180000  1
  O  O108  1  0.25450000  0.74900000  0.68280000  1
  O  O109  1  0.75450000  0.25100000  0.68280000  1
  O  O110  1  0.61210000  0.88790000  0.67650000  1
  O  O111  1  0.11210000  0.11210000  0.67650000  1
  O  O112  1  0.51270000  0.75500000  0.66070000  1
  O  O113  1  0.01270000  0.24500000  0.66070000  1
  O  O114  1  0.02720000  0.75210000  0.65270000  1
  O  O115  1  0.52720000  0.24790000  0.65270000  1
  O  O116  1  0.73310000  0.79170000  0.62690000  1
  O  O117  1  0.23310000  0.20830000  0.62690000  1
  O  O118  1  0.95210000  0.86790000  0.59590000  1
  O  O119  1  0.45210000  0.13210000  0.59590000  1
  O  O120  1  0.53040000  0.85030000  0.59370000  1
  O  O121  1  0.03040000  0.14970000  0.59370000  1
  O  O122  1  0.76400000  0.95300000  0.56970000  1
  O  O123  1  0.26400000  0.04700000  0.56970000  1
  O  O124  1  0.99170000  0.99580000  0.56130000  1
  O  O125  1  0.49170000  0.00420000  0.56130000  1
  O  O126  1  0.91120000  0.88840000  0.50850000  1
  O  O127  1  0.41120000  0.11160000  0.50850000  1
  O  O128  1  0.58880000  0.88840000  0.49150000  1
  O  O129  1  0.08880000  0.11160000  0.49150000  1
  O  O130  1  0.50830000  0.99580000  0.43870000  1
  O  O131  1  0.00830000  0.00420000  0.43870000  1
  O  O132  1  0.73600000  0.95300000  0.43030000  1
  O  O133  1  0.23600000  0.04700000  0.43030000  1
  O  O134  1  0.96960000  0.85030000  0.40630000  1
  O  O135  1  0.46960000  0.14970000  0.40630000  1
  O  O136  1  0.54790000  0.86790000  0.40410000  1
  O  O137  1  0.04790000  0.13210000  0.40410000  1
  O  O138  1  0.76690000  0.79170000  0.37310000  1
  O  O139  1  0.26690000  0.20830000  0.37310000  1
  O  O140  1  0.47280000  0.75210000  0.34730000  1
  O  O141  1  0.97280000  0.24790000  0.34730000  1
  O  O142  1  0.98730000  0.75500000  0.33930000  1
  O  O143  1  0.48730000  0.24500000  0.33930000  1
  O  O144  1  0.88790000  0.88790000  0.32350000  1
  O  O145  1  0.38790000  0.11210000  0.32350000  1
  O  O146  1  0.24550000  0.74900000  0.31720000  1
  O  O147  1  0.74550000  0.25100000  0.31720000  1
  O  O148  1  0.57850000  0.90850000  0.30820000  1
  O  O149  1  0.07850000  0.09150000  0.30820000  1
  O  O150  1  0.39840000  0.63940000  0.29920000  1
  O  O151  1  0.89840000  0.36060000  0.29920000  1
  O  O152  1  0.08710000  0.62810000  0.28270000  1
  O  O153  1  0.58710000  0.37190000  0.28270000  1
  O  O154  1  0.01600000  0.50080000  0.25710000  1
  O  O155  1  0.51600000  0.49920000  0.25710000  1
  O  O156  1  0.42610000  0.76610000  0.25680000  1
  O  O157  1  0.92610000  0.23390000  0.25680000  1
  O  O158  1  0.75220000  0.96520000  0.25350000  1
  O  O159  1  0.25220000  0.03480000  0.25350000  1
  O  O160  1  0.25220000  0.53480000  0.24650000  1
  O  O161  1  0.75220000  0.46520000  0.24650000  1
  O  O162  1  0.92610000  0.73390000  0.24320000  1
  O  O163  1  0.42610000  0.26610000  0.24320000  1
  O  O164  1  0.51600000  0.99920000  0.24290000  1
  O  O165  1  0.01600000  0.00080000  0.24290000  1
  O  O166  1  0.58710000  0.87190000  0.21730000  1
  O  O167  1  0.08710000  0.12810000  0.21730000  1
  O  O168  1  0.89840000  0.86060000  0.20080000  1
  O  O169  1  0.39840000  0.13940000  0.20080000  1
  O  O170  1  0.07850000  0.59150000  0.19180000  1
  O  O171  1  0.57850000  0.40850000  0.19180000  1
  O  O172  1  0.74550000  0.75100000  0.18280000  1
  O  O173  1  0.24550000  0.24900000  0.18280000  1
  O  O174  1  0.38790000  0.61210000  0.17650000  1
  O  O175  1  0.88790000  0.38790000  0.17650000  1
  O  O176  1  0.48730000  0.74500000  0.16070000  1
  O  O177  1  0.98730000  0.25500000  0.16070000  1
  O  O178  1  0.97280000  0.74790000  0.15270000  1
  O  O179  1  0.47280000  0.25210000  0.15270000  1
  O  O180  1  0.26690000  0.70830000  0.12690000  1
  O  O181  1  0.76690000  0.29170000  0.12690000  1
  O  O182  1  0.04790000  0.63210000  0.09590000  1
  O  O183  1  0.54790000  0.36790000  0.09590000  1
  O  O184  1  0.46960000  0.64970000  0.09370000  1
  O  O185  1  0.96960000  0.35030000  0.09370000  1
  O  O186  1  0.23600000  0.54700000  0.06970000  1
  O  O187  1  0.73600000  0.45300000  0.06970000  1
  O  O188  1  0.00830000  0.50420000  0.06130000  1
  O  O189  1  0.50830000  0.49580000  0.06130000  1
  O  O190  1  0.08880000  0.61160000  0.00850000  1
  O  O191  1  0.58880000  0.38840000  0.00850000  1
  F  F192  1  0.32070000  0.73020000  0.78390000  1
  F  F193  1  0.82070000  0.26980000  0.78390000  1
  F  F194  1  0.90630000  0.64760000  0.76750000  1
  F  F195  1  0.40630000  0.35240000  0.76750000  1
  F  F196  1  0.40630000  0.85240000  0.73250000  1
  F  F197  1  0.90630000  0.14760000  0.73250000  1
  F  F198  1  0.82070000  0.76980000  0.71610000  1
  F  F199  1  0.32070000  0.23020000  0.71610000  1
  F  F200  1  0.67930000  0.76980000  0.28390000  1
  F  F201  1  0.17930000  0.23020000  0.28390000  1
  F  F202  1  0.09370000  0.85240000  0.26750000  1
  F  F203  1  0.59370000  0.14760000  0.26750000  1
  F  F204  1  0.59370000  0.64760000  0.23250000  1
  F  F205  1  0.09370000  0.35240000  0.23250000  1
  F  F206  1  0.17930000  0.73020000  0.21610000  1
  F  F207  1  0.67930000  0.26980000  0.21610000  1
