# generated using pymatgen
data_CuH12(C5N)4
_symmetry_space_group_name_H-M   'P 1'
_cell_length_a   13.63600000
_cell_length_b   13.63600000
_cell_length_c   19.46700000
_cell_angle_alpha   90.00000000
_cell_angle_beta   90.00000000
_cell_angle_gamma   90.00000000
_symmetry_Int_Tables_number   1
_chemical_formula_structural   CuH12(C5N)4
_chemical_formula_sum   'Cu4 H48 C80 N16'
_cell_volume   3619.70363563
_cell_formula_units_Z   4
loop_
 _symmetry_equiv_pos_site_id
 _symmetry_equiv_pos_as_xyz
  1  'x, y, z'
loop_
 _atom_site_type_symbol
 _atom_site_label
 _atom_site_symmetry_multiplicity
 _atom_site_fract_x
 _atom_site_fract_y
 _atom_site_fract_z
 _atom_site_occupancy
  Cu  Cu0  1  0.00000000  0.00000000  0.00000000  1
  Cu  Cu1  1  0.00000000  0.00000000  0.50000000  1
  Cu  Cu2  1  0.50000000  0.50000000  0.00000000  1
  Cu  Cu3  1  0.50000000  0.50000000  0.50000000  1
  H  H4  1  0.00080000  0.85120000  0.76590000  1
  H  H5  1  0.00490000  0.85510000  0.88420000  1
  H  H6  1  0.03430000  0.19560000  0.06070000  1
  H  H7  1  0.09690000  0.82700000  0.27720000  1
  H  H8  1  0.14490000  0.99510000  0.11580000  1
  H  H9  1  0.14880000  0.99920000  0.23410000  1
  H  H10  1  0.14950000  0.31700000  0.06260000  1
  H  H11  1  0.17300000  0.90310000  0.72280000  1
  H  H12  1  0.18300000  0.64950000  0.56260000  1
  H  H13  1  0.19040000  0.74110000  0.36870000  1
  H  H14  1  0.19560000  0.03430000  0.93930000  1
  H  H15  1  0.24110000  0.30960000  0.86870000  1
  H  H16  1  0.25890000  0.80960000  0.63130000  1
  H  H17  1  0.30440000  0.53430000  0.56070000  1
  H  H18  1  0.30960000  0.24110000  0.13130000  1
  H  H19  1  0.31700000  0.14950000  0.93740000  1
  H  H20  1  0.32700000  0.40310000  0.77720000  1
  H  H21  1  0.35050000  0.81700000  0.43740000  1
  H  H22  1  0.35120000  0.49920000  0.26590000  1
  H  H23  1  0.35510000  0.49510000  0.38420000  1
  H  H24  1  0.40310000  0.32700000  0.22280000  1
  H  H25  1  0.46570000  0.69560000  0.43930000  1
  H  H26  1  0.49510000  0.35510000  0.61580000  1
  H  H27  1  0.49920000  0.35120000  0.73410000  1
  H  H28  1  0.50080000  0.64880000  0.73410000  1
  H  H29  1  0.50490000  0.64490000  0.61580000  1
  H  H30  1  0.53430000  0.30440000  0.43930000  1
  H  H31  1  0.59690000  0.67300000  0.22280000  1
  H  H32  1  0.64490000  0.50490000  0.38420000  1
  H  H33  1  0.64880000  0.50080000  0.26590000  1
  H  H34  1  0.64950000  0.18300000  0.43740000  1
  H  H35  1  0.67300000  0.59690000  0.77720000  1
  H  H36  1  0.68300000  0.85050000  0.93740000  1
  H  H37  1  0.69040000  0.75890000  0.13130000  1
  H  H38  1  0.69560000  0.46570000  0.56070000  1
  H  H39  1  0.74110000  0.19040000  0.63130000  1
  H  H40  1  0.75890000  0.69040000  0.86870000  1
  H  H41  1  0.80440000  0.96570000  0.93930000  1
  H  H42  1  0.80960000  0.25890000  0.36870000  1
  H  H43  1  0.81700000  0.35050000  0.56260000  1
  H  H44  1  0.82700000  0.09690000  0.72280000  1
  H  H45  1  0.85050000  0.68300000  0.06260000  1
  H  H46  1  0.85120000  0.00080000  0.23410000  1
  H  H47  1  0.85510000  0.00490000  0.11580000  1
  H  H48  1  0.90310000  0.17300000  0.27720000  1
  H  H49  1  0.96570000  0.80440000  0.06070000  1
  H  H50  1  0.99510000  0.14490000  0.88420000  1
  H  H51  1  0.99920000  0.14880000  0.76590000  1
  C  C52  1  0.00000000  0.00000000  0.24790000  1
  C  C53  1  0.00000000  0.00000000  0.32450000  1
  C  C54  1  0.00000000  0.00000000  0.67550000  1
  C  C55  1  0.00000000  0.00000000  0.75210000  1
  C  C56  1  0.00100000  0.91240000  0.78920000  1
  C  C57  1  0.00230000  0.91540000  0.85970000  1
  C  C58  1  0.05100000  0.92590000  0.35750000  1
  C  C59  1  0.07410000  0.94900000  0.64250000  1
  C  C60  1  0.08460000  0.99770000  0.14030000  1
  C  C61  1  0.08760000  0.99900000  0.21080000  1
  C  C62  1  0.09310000  0.18690000  0.03520000  1
  C  C63  1  0.09960000  0.84410000  0.32450000  1
  C  C64  1  0.13000000  0.84550000  0.43810000  1
  C  C65  1  0.14950000  0.79680000  0.37470000  1
  C  C66  1  0.15450000  0.87000000  0.56190000  1
  C  C67  1  0.15590000  0.90040000  0.67550000  1
  C  C68  1  0.16080000  0.25900000  0.03680000  1
  C  C69  1  0.17540000  0.82460000  0.50000000  1
  C  C70  1  0.18690000  0.09310000  0.96480000  1
  C  C71  1  0.20320000  0.85050000  0.62530000  1
  C  C72  1  0.24100000  0.66080000  0.53680000  1
  C  C73  1  0.24720000  0.24720000  0.00000000  1
  C  C74  1  0.25280000  0.74720000  0.50000000  1
  C  C75  1  0.25900000  0.16080000  0.96320000  1
  C  C76  1  0.29680000  0.35050000  0.87470000  1
  C  C77  1  0.31310000  0.59310000  0.53520000  1
  C  C78  1  0.32460000  0.32460000  0.00000000  1
  C  C79  1  0.33920000  0.75900000  0.46320000  1
  C  C80  1  0.34410000  0.40040000  0.82450000  1
  C  C81  1  0.34550000  0.37000000  0.93810000  1
  C  C82  1  0.35050000  0.29680000  0.12530000  1
  C  C83  1  0.37000000  0.34550000  0.06190000  1
  C  C84  1  0.40040000  0.34410000  0.17550000  1
  C  C85  1  0.40690000  0.68690000  0.46480000  1
  C  C86  1  0.41240000  0.49900000  0.28920000  1
  C  C87  1  0.41540000  0.49770000  0.35970000  1
  C  C88  1  0.42590000  0.44900000  0.85750000  1
  C  C89  1  0.44900000  0.42590000  0.14250000  1
  C  C90  1  0.49770000  0.41540000  0.64030000  1
  C  C91  1  0.49900000  0.41240000  0.71080000  1
  C  C92  1  0.50000000  0.50000000  0.17550000  1
  C  C93  1  0.50000000  0.50000000  0.25210000  1
  C  C94  1  0.50000000  0.50000000  0.74790000  1
  C  C95  1  0.50000000  0.50000000  0.82450000  1
  C  C96  1  0.50100000  0.58760000  0.71080000  1
  C  C97  1  0.50230000  0.58460000  0.64030000  1
  C  C98  1  0.55100000  0.57410000  0.14250000  1
  C  C99  1  0.57410000  0.55100000  0.85750000  1
  C  C100  1  0.58460000  0.50230000  0.35970000  1
  C  C101  1  0.58760000  0.50100000  0.28920000  1
  C  C102  1  0.59310000  0.31310000  0.46480000  1
  C  C103  1  0.59960000  0.65590000  0.17550000  1
  C  C104  1  0.63000000  0.65450000  0.06190000  1
  C  C105  1  0.64950000  0.70320000  0.12530000  1
  C  C106  1  0.65450000  0.63000000  0.93810000  1
  C  C107  1  0.65590000  0.59960000  0.82450000  1
  C  C108  1  0.66080000  0.24100000  0.46320000  1
  C  C109  1  0.67540000  0.67540000  0.00000000  1
  C  C110  1  0.68690000  0.40690000  0.53520000  1
  C  C111  1  0.70320000  0.64950000  0.87470000  1
  C  C112  1  0.74100000  0.83920000  0.96320000  1
  C  C113  1  0.74720000  0.25280000  0.50000000  1
  C  C114  1  0.75280000  0.75280000  0.00000000  1
  C  C115  1  0.75900000  0.33920000  0.53680000  1
  C  C116  1  0.79680000  0.14950000  0.62530000  1
  C  C117  1  0.81310000  0.90690000  0.96480000  1
  C  C118  1  0.82460000  0.17540000  0.50000000  1
  C  C119  1  0.83920000  0.74100000  0.03680000  1
  C  C120  1  0.84410000  0.09960000  0.67550000  1
  C  C121  1  0.84550000  0.13000000  0.56190000  1
  C  C122  1  0.85050000  0.20320000  0.37470000  1
  C  C123  1  0.87000000  0.15450000  0.43810000  1
  C  C124  1  0.90040000  0.15590000  0.32450000  1
  C  C125  1  0.90690000  0.81310000  0.03520000  1
  C  C126  1  0.91240000  0.00100000  0.21080000  1
  C  C127  1  0.91540000  0.00230000  0.14030000  1
  C  C128  1  0.92590000  0.05100000  0.64250000  1
  C  C129  1  0.94900000  0.07410000  0.35750000  1
  C  C130  1  0.99770000  0.08460000  0.85970000  1
  C  C131  1  0.99900000  0.08760000  0.78920000  1
  N  N132  1  0.00000000  0.00000000  0.10400000  1
  N  N133  1  0.00000000  0.00000000  0.89600000  1
  N  N134  1  0.06790000  0.92300000  0.42690000  1
  N  N135  1  0.07700000  0.93210000  0.57310000  1
  N  N136  1  0.10450000  0.10450000  0.00000000  1
  N  N137  1  0.39550000  0.60450000  0.50000000  1
  N  N138  1  0.42300000  0.43210000  0.92690000  1
  N  N139  1  0.43210000  0.42300000  0.07310000  1
  N  N140  1  0.50000000  0.50000000  0.39600000  1
  N  N141  1  0.50000000  0.50000000  0.60400000  1
  N  N142  1  0.56790000  0.57700000  0.07310000  1
  N  N143  1  0.57700000  0.56790000  0.92690000  1
  N  N144  1  0.60450000  0.39550000  0.50000000  1
  N  N145  1  0.89550000  0.89550000  0.00000000  1
  N  N146  1  0.92300000  0.06790000  0.57310000  1
  N  N147  1  0.93210000  0.07700000  0.42690000  1
