# generated using pymatgen
data_CoH8(C7O3)2
_symmetry_space_group_name_H-M   'P 1'
_cell_length_a   8.65470000
_cell_length_b   17.37200000
_cell_length_c   17.37200000
_cell_angle_alpha   120.00000000
_cell_angle_beta   90.00000000
_cell_angle_gamma   90.00000000
_symmetry_Int_Tables_number   1
_chemical_formula_structural   CoH8(C7O3)2
_chemical_formula_sum   'Co3 H24 C42 O18'
_cell_volume   2261.94630624
_cell_formula_units_Z   3
loop_
 _symmetry_equiv_pos_site_id
 _symmetry_equiv_pos_as_xyz
  1  'x, y, z'
loop_
 _atom_site_type_symbol
 _atom_site_label
 _atom_site_symmetry_multiplicity
 _atom_site_fract_x
 _atom_site_fract_y
 _atom_site_fract_z
 _atom_site_occupancy
  Co  Co0  1  1.00000000  0.00000000  0.46969000  1
  Co  Co1  1  0.33333333  0.46969000  1.00000000  1
  Co  Co2  1  0.66666667  0.53031000  0.53031000  1
  H  H3  1  0.00360000  0.23430000  0.69900000  1
  H  H4  1  0.11793000  0.88040000  0.18850000  1
  H  H5  1  0.13910000  0.04150000  0.80040000  1
  H  H6  1  0.16093000  0.84650000  0.42160000  1
  H  H7  1  0.17240000  0.42160000  0.84650000  1
  H  H8  1  0.19423000  0.80040000  0.04150000  1
  H  H9  1  0.21540000  0.18850000  0.88040000  1
  H  H10  1  0.32973000  0.69900000  0.23430000  1
  H  H11  1  0.33693000  0.46470000  0.76570000  1
  H  H12  1  0.45127000  0.30810000  0.11960000  1
  H  H13  1  0.47243000  0.75890000  0.95850000  1
  H  H14  1  0.49427000  0.57510000  0.15350000  1
  H  H15  1  0.50573000  0.42490000  0.57840000  1
  H  H16  1  0.52757000  0.24110000  0.19960000  1
  H  H17  1  0.54873000  0.69190000  0.81150000  1
  H  H18  1  0.66307000  0.53530000  0.30100000  1
  H  H19  1  0.67027000  0.30100000  0.53530000  1
  H  H20  1  0.78460000  0.81150000  0.69190000  1
  H  H21  1  0.80577000  0.19960000  0.24110000  1
  H  H22  1  0.82760000  0.57840000  0.42490000  1
  H  H23  1  0.83907000  0.15350000  0.57510000  1
  H  H24  1  0.86090000  0.95850000  0.75890000  1
  H  H25  1  0.88207000  0.11960000  0.30810000  1
  H  H26  1  0.99640000  0.76570000  0.46470000  1
  C  C27  1  0.01540000  0.89296000  0.56511000  1
  C  C28  1  0.02560000  0.04702000  0.70142000  1
  C  C29  1  0.03140000  0.19471000  0.71945000  1
  C  C30  1  0.11120000  0.08060000  0.77930000  1
  C  C31  1  0.11870000  0.22579000  0.79672000  1
  C  C32  1  0.15760000  0.16796000  0.82721000  1
  C  C33  1  0.16223000  0.84698000  0.32064000  1
  C  C34  1  0.17110000  0.32064000  0.84698000  1
  C  C35  1  0.17573000  0.82721000  0.16796000  1
  C  C36  1  0.21463000  0.79672000  0.22579000  1
  C  C37  1  0.22213000  0.77930000  0.08060000  1
  C  C38  1  0.30193000  0.71945000  0.19471000  1
  C  C39  1  0.30773000  0.70142000  0.04702000  1
  C  C40  1  0.31793000  0.56511000  0.89296000  1
  C  C41  1  0.34873000  0.67215000  0.10704000  1
  C  C42  1  0.35893000  0.65440000  0.95298000  1
  C  C43  1  0.36473000  0.52474000  0.80529000  1
  C  C44  1  0.44453000  0.69870000  0.91940000  1
  C  C45  1  0.45203000  0.57093000  0.77421000  1
  C  C46  1  0.49093000  0.65925000  0.83204000  1
  C  C47  1  0.49557000  0.47366000  0.15302000  1
  C  C48  1  0.50443000  0.52634000  0.67936000  1
  C  C49  1  0.50907000  0.34075000  0.17279000  1
  C  C50  1  0.54797000  0.42907000  0.20328000  1
  C  C51  1  0.55547000  0.30130000  0.22070000  1
  C  C52  1  0.63527000  0.47526000  0.28055000  1
  C  C53  1  0.64107000  0.34560000  0.29858000  1
  C  C54  1  0.65127000  0.32785000  0.43489000  1
  C  C55  1  0.68207000  0.43489000  0.32785000  1
  C  C56  1  0.69227000  0.29858000  0.34560000  1
  C  C57  1  0.69807000  0.28055000  0.47526000  1
  C  C58  1  0.77787000  0.22070000  0.30130000  1
  C  C59  1  0.78537000  0.20328000  0.42907000  1
  C  C60  1  0.82427000  0.17279000  0.34075000  1
  C  C61  1  0.82890000  0.67936000  0.52634000  1
  C  C62  1  0.83777000  0.15302000  0.47366000  1
  C  C63  1  0.84240000  0.83204000  0.65925000  1
  C  C64  1  0.88130000  0.77421000  0.57093000  1
  C  C65  1  0.88880000  0.91940000  0.69870000  1
  C  C66  1  0.96860000  0.80529000  0.52474000  1
  C  C67  1  0.97440000  0.95298000  0.65440000  1
  C  C68  1  0.98460000  0.10704000  0.67215000  1
  O  O69  1  0.09243000  0.91800000  0.34619000  1
  O  O70  1  0.10260000  0.92264000  0.51970000  1
  O  O71  1  0.13810000  0.37008000  0.81329000  1
  O  O72  1  0.19523000  0.81329000  0.37008000  1
  O  O73  1  0.23073000  0.51970000  0.92264000  1
  O  O74  1  0.24090000  0.34619000  0.91800000  1
  O  O75  1  0.42577000  0.42819000  0.08200000  1
  O  O76  1  0.43593000  0.59706000  0.07736000  1
  O  O77  1  0.47143000  0.44321000  0.62992000  1
  O  O78  1  0.52857000  0.55679000  0.18671000  1
  O  O79  1  0.56407000  0.40294000  0.48030000  1
  O  O80  1  0.57423000  0.57181000  0.65381000  1
  O  O81  1  0.75910000  0.65381000  0.57181000  1
  O  O82  1  0.76927000  0.48030000  0.40294000  1
  O  O83  1  0.80477000  0.18671000  0.55679000  1
  O  O84  1  0.86190000  0.62992000  0.44321000  1
  O  O85  1  0.89740000  0.07736000  0.59706000  1
  O  O86  1  0.90757000  0.08200000  0.42819000  1
