# generated using pymatgen
data_Mn3H57C51N8O9
_symmetry_space_group_name_H-M   'P 1'
_cell_length_a   17.47260000
_cell_length_b   30.07330000
_cell_length_c   30.07327237
_cell_angle_alpha   85.15905882
_cell_angle_beta   73.11217341
_cell_angle_gamma   73.11210000
_symmetry_Int_Tables_number   1
_chemical_formula_structural   Mn3H57C51N8O9
_chemical_formula_sum   'Mn24 H456 C408 N64 O72'
_cell_volume   14468.71135858
_cell_formula_units_Z   8
loop_
 _symmetry_equiv_pos_site_id
 _symmetry_equiv_pos_as_xyz
  1  'x, y, z'
loop_
 _atom_site_type_symbol
 _atom_site_label
 _atom_site_symmetry_multiplicity
 _atom_site_fract_x
 _atom_site_fract_y
 _atom_site_fract_z
 _atom_site_occupancy
  Mn  Mn0  1  0.91143000  0.14358000  0.08328000  1
  Mn  Mn1  1  0.55501000  0.08328000  0.35642000  1
  Mn  Mn2  1  0.85720000  0.38330000  0.03632000  1
  Mn  Mn3  1  0.00529000  0.58328000  0.85642000  1
  Mn  Mn4  1  0.74050000  0.03632000  0.11670000  1
  Mn  Mn5  1  0.21877000  0.99760000  0.57820000  1
  Mn  Mn6  1  0.79697000  0.92180000  0.99760000  1
  Mn  Mn7  1  0.28363000  0.42180000  0.49760000  1
  Mn  Mn8  1  0.27682000  0.11670000  0.46368000  1
  Mn  Mn9  1  0.10648000  0.53632000  0.61670000  1
  Mn  Mn10  1  0.79457000  0.50240000  0.92180000  1
  Mn  Mn11  1  0.13829000  0.35642000  0.41672000  1
  Mn  Mn12  1  0.86171000  0.64358000  0.58328000  1
  Mn  Mn13  1  0.20543000  0.49760000  0.07820000  1
  Mn  Mn14  1  0.89352000  0.46368000  0.38330000  1
  Mn  Mn15  1  0.72318000  0.88330000  0.53632000  1
  Mn  Mn16  1  0.71637000  0.57820000  0.50240000  1
  Mn  Mn17  1  0.20303000  0.07820000  0.00240000  1
  Mn  Mn18  1  0.78123000  0.00240000  0.42180000  1
  Mn  Mn19  1  0.25950000  0.96368000  0.88330000  1
  Mn  Mn20  1  0.99471000  0.41672000  0.14358000  1
  Mn  Mn21  1  0.14280000  0.61670000  0.96368000  1
  Mn  Mn22  1  0.44499000  0.91672000  0.64358000  1
  Mn  Mn23  1  0.08857000  0.85642000  0.91672000  1
  H  H24  1  0.57030000  0.77110000  0.42970000  1
  H  H25  1  0.42970000  0.22890000  0.57030000  1
  H  H26  1  0.55760000  0.18260000  0.43740000  1
  H  H27  1  0.93470000  0.89370000  0.05510000  1
  H  H28  1  0.65350000  0.44040000  0.33600000  1
  H  H29  1  0.39980000  0.73870000  0.58730000  1
  H  H30  1  0.34650000  0.12090000  0.63730000  1
  H  H31  1  0.41050000  0.30830000  0.57250000  1
  H  H32  1  0.20160000  0.21240000  0.78020000  1
  H  H33  1  0.22770000  0.98210000  0.75210000  1
  H  H34  1  0.86790000  0.84190000  0.11090000  1
  H  H35  1  0.40520000  0.07180000  0.57360000  1
  H  H36  1  0.07100000  0.34940000  0.90680000  1
  H  H37  1  0.05060000  0.42820000  0.92640000  1
  H  H38  1  0.51290000  0.11050000  0.46410000  1
  H  H39  1  0.80770000  0.41500000  0.16620000  1
  H  H40  1  0.31430000  0.61460000  0.65940000  1
  H  H41  1  0.72960000  0.09860000  0.24320000  1
  H  H42  1  0.45570000  0.58300000  0.51560000  1
  H  H43  1  0.80140000  0.78700000  0.16620000  1
  H  H44  1  0.10470000  0.37910000  0.86270000  1
  H  H45  1  0.97980000  0.74790000  0.98210000  1
  H  H46  1  0.46400000  0.91680000  0.49140000  1
  H  H47  1  0.25960000  0.86400000  0.69580000  1
  H  H48  1  0.80660000  0.88440000  0.14340000  1
  H  H49  1  0.02120000  0.07360000  0.92820000  1
  H  H50  1  0.46170000  0.84070000  0.48450000  1
  H  H51  1  0.74070000  0.83010000  0.19830000  1
  H  H52  1  0.84450000  0.25410000  0.09310000  1
  H  H53  1  0.14280000  0.15030000  0.79370000  1
  H  H54  1  0.32840000  0.05510000  0.60630000  1
  H  H55  1  0.23090000  0.33010000  0.69830000  1
  H  H56  1  0.90600000  0.69840000  0.02300000  1
  H  H57  1  0.07960000  0.09320000  0.84940000  1
  H  H58  1  0.02720000  0.74320000  0.90140000  1
  H  H59  1  0.86030000  0.52860000  0.06600000  1
  H  H60  1  0.31510000  0.77770000  0.60990000  1
  H  H61  1  0.40940000  0.76970000  0.51550000  1
  H  H62  1  0.41260000  0.51710000  0.51230000  1
  H  H63  1  0.34820000  0.84900000  0.57500000  1
  H  H64  1  0.32720000  0.15060000  0.59320000  1
  H  H65  1  0.36260000  0.64690000  0.55730000  1
  H  H66  1  0.22440000  0.17360000  0.69320000  1
  H  H67  1  0.69090000  0.41350000  0.22590000  1
  H  H68  1  0.54820000  0.33910000  0.36750000  1
  H  H69  1  0.19420000  0.28760000  0.71980000  1
  H  H70  1  0.06350000  0.29370000  0.84970000  1
  H  H71  1  0.02300000  0.96410000  0.88950000  1
  H  H72  1  0.60190000  0.21510000  0.30990000  1
  H  H73  1  0.24540000  0.28700000  0.66620000  1
  H  H74  1  0.08240000  0.19320000  0.82640000  1
  H  H75  1  0.76420000  0.52730000  0.14330000  1
  H  H76  1  0.10440000  0.02300000  0.80160000  1
  H  H77  1  0.60960000  0.37660000  0.29420000  1
  H  H78  1  0.09120000  0.32640000  0.80680000  1
  H  H79  1  0.37260000  0.19840000  0.52300000  1
  H  H80  1  0.01620000  0.13730000  0.87910000  1
  H  H81  1  0.31500000  0.73850000  0.57710000  1
  H  H82  1  0.45490000  0.97140000  0.43400000  1
  H  H83  1  0.98980000  0.44490000  0.89370000  1
  H  H84  1  0.87220000  0.58320000  0.00860000  1
  H  H85  1  0.16860000  0.81800000  0.71040000  1
  H  H86  1  0.91250000  0.61050000  0.96410000  1
  H  H87  1  0.43990000  0.34500000  0.43360000  1
  H  H88  1  0.08820000  0.80990000  0.78490000  1
  H  H89  1  0.95540000  0.00860000  0.91680000  1
  H  H90  1  0.82070000  0.49360000  0.04900000  1
  H  H91  1  0.20980000  0.11090000  0.65810000  1
  H  H92  1  0.57670000  0.43200000  0.29020000  1
  H  H93  1  0.36690000  0.87190000  0.49650000  1
  H  H94  1  0.88890000  0.06600000  0.97140000  1
  H  H95  1  0.17520000  0.59520000  0.68380000  1
  H  H96  1  0.20690000  0.20630000  0.65030000  1
  H  H97  1  0.49180000  0.47750000  0.36230000  1
  H  H98  1  0.31460000  0.80080000  0.53020000  1
  H  H99  1  0.59860000  0.09310000  0.24590000  1
  H  H100  1  0.72060000  0.49780000  0.12180000  1
  H  H101  1  0.77110000  0.72890000  0.07030000  1
  H  H102  1  0.95000000  0.35660000  0.88440000  1
  H  H103  1  0.51340000  0.28960000  0.31800000  1
  H  H104  1  0.72960000  0.31620000  0.09520000  1
  H  H105  1  0.22820000  0.64670000  0.59590000  1
  H  H106  1  0.00500000  0.93740000  0.81740000  1
  H  H107  1  0.97880000  0.38910000  0.84190000  1
  H  H108  1  0.81430000  0.04900000  0.00640000  1
  H  H109  1  0.95540000  0.80420000  0.86400000  1
  H  H110  1  0.38550000  0.48050000  0.42890000  1
  H  H111  1  0.36330000  0.00640000  0.45100000  1
  H  H112  1  0.16560000  0.38440000  0.64340000  1
  H  H113  1  0.06240000  0.59310000  0.74590000  1
  H  H114  1  0.68180000  0.58880000  0.12620000  1
  H  H115  1  0.72270000  0.16620000  0.08500000  1
  H  H116  1  0.38060000  0.92220000  0.42700000  1
  H  H117  1  0.19100000  0.14340000  0.61560000  1
  H  H118  1  0.01820000  0.28020000  0.78760000  1
  H  H119  1  0.72980000  0.57780000  0.07300000  1
  H  H120  1  0.78690000  0.65930000  0.01550000  1
  H  H121  1  0.08840000  0.16620000  0.71300000  1
  H  H122  1  0.08600000  0.21980000  0.71240000  1
  H  H123  1  0.08680000  0.34970000  0.70630000  1
  H  H124  1  0.43480000  0.97270000  0.35670000  1
  H  H125  1  0.17930000  0.34190000  0.61090000  1
  H  H126  1  0.94620000  0.01550000  0.84070000  1
  H  H127  1  0.12650000  0.93360000  0.65500000  1
  H  H128  1  0.70870000  0.80830000  0.07250000  1
  H  H129  1  0.39010000  0.55970000  0.39010000  1
  H  H130  1  0.10200000  0.30680000  0.67360000  1
  H  H131  1  0.29020000  0.24790000  0.48210000  1
  H  H132  1  0.92320000  0.92500000  0.84900000  1
  H  H133  1  0.62510000  0.40410000  0.14670000  1
  H  H134  1  0.00000000  0.07030000  0.77110000  1
  H  H135  1  0.39680000  0.91120000  0.37380000  1
  H  H136  1  0.93900000  0.30170000  0.83010000  1
  H  H137  1  0.79150000  0.14330000  0.97270000  1
  H  H138  1  0.82240000  0.68260000  0.93740000  1
  H  H139  1  0.96760000  0.33380000  0.78700000  1
  H  H140  1  0.08430000  0.86750000  0.66090000  1
  H  H141  1  0.31670000  0.86240000  0.42520000  1
  H  H142  1  0.07080000  0.19830000  0.66990000  1
  H  H143  1  0.37640000  0.30420000  0.36400000  1
  H  H144  1  0.73530000  0.62810000  0.00350000  1
  H  H145  1  0.28460000  0.56670000  0.45330000  1
  H  H146  1  0.86340000  0.00350000  0.87190000  1
  H  H147  1  0.35860000  0.61290000  0.37550000  1
  H  H148  1  0.80760000  0.07300000  0.92220000  1
  H  H149  1  0.32820000  0.24320000  0.40140000  1
  H  H150  1  0.54580000  0.09520000  0.18380000  1
  H  H151  1  0.98710000  0.91270000  0.73870000  1
  H  H152  1  0.27670000  0.62070000  0.44790000  1
  H  H153  1  0.60260000  0.55210000  0.12070000  1
  H  H154  1  0.38890000  0.08500000  0.33380000  1
  H  H155  1  0.71840000  0.12180000  0.00220000  1
  H  H156  1  0.09620000  0.79420000  0.62340000  1
  H  H157  1  0.34020000  0.00220000  0.37820000  1
  H  H158  1  0.64870000  0.54670000  0.06670000  1
  H  H159  1  0.78150000  0.84500000  0.93360000  1
  H  H160  1  0.96190000  0.51790000  0.74790000  1
  H  H161  1  0.01700000  0.07250000  0.69170000  1
  H  H162  1  0.18560000  0.92890000  0.51950000  1
  H  H163  1  0.92500000  0.89010000  0.77770000  1
  H  H164  1  0.13310000  0.79020000  0.56800000  1
  H  H165  1  0.77220000  0.65100000  0.92500000  1
  H  H166  1  0.87900000  0.78960000  0.81800000  1
  H  H167  1  0.26210000  0.95330000  0.43330000  1
  H  H168  1  0.92490000  0.98450000  0.76970000  1
  H  H169  1  0.60440000  0.22590000  0.08650000  1
  H  H170  1  0.57110000  0.34060000  0.11460000  1
  H  H171  1  0.38460000  0.46980000  0.30080000  1
  H  H172  1  0.44650000  0.42290000  0.23850000  1
  H  H173  1  0.40720000  0.39010000  0.27770000  1
  H  H174  1  0.32090000  0.57480000  0.36240000  1
  H  H175  1  0.87310000  0.71510000  0.80990000  1
  H  H176  1  0.77060000  0.12620000  0.91120000  1
  H  H177  1  0.69460000  0.73030000  0.98450000  1
  H  H178  1  0.60430000  0.63760000  0.07480000  1
  H  H179  1  0.02220000  0.40680000  0.65060000  1
  H  H180  1  0.92860000  0.59860000  0.74320000  1
  H  H181  1  0.11650000  0.39370000  0.55510000  1
  H  H182  1  0.08320000  0.72590000  0.58650000  1
  H  H183  1  0.14590000  0.86230000  0.52250000  1
  H  H184  1  0.21980000  0.89010000  0.44030000  1
  H  H185  1  0.15760000  0.62180000  0.50220000  1
  H  H186  1  0.27540000  0.94790000  0.37930000  1
  H  H187  1  0.03260000  0.36270000  0.62090000  1
  H  H188  1  0.59390000  0.33600000  0.05960000  1
  H  H189  1  0.26590000  0.87550000  0.38710000  1
  H  H190  1  0.30280000  0.42500000  0.34900000  1
  H  H191  1  0.69540000  0.06670000  0.95330000  1
  H  H192  1  0.84480000  0.96980000  0.80080000  1
  H  H193  1  0.52850000  0.62450000  0.11290000  1
  H  H194  1  0.72580000  0.76130000  0.91270000  1
  H  H195  1  0.49050000  0.44270000  0.14690000  1
  H  H196  1  0.13030000  0.54900000  0.50640000  1
  H  H197  1  0.70510000  0.98050000  0.92890000  1
  H  H198  1  0.26120000  0.50350000  0.37190000  1
  H  H199  1  0.89210000  0.92290000  0.73850000  1
  H  H200  1  0.92900000  0.47700000  0.69840000  1
  H  H201  1  0.52920000  0.14670000  0.09590000  1
  H  H202  1  0.81940000  0.63600000  0.80420000  1
  H  H203  1  0.19720000  0.57300000  0.42220000  1
  H  H204  1  0.64560000  0.69920000  0.96980000  1
  H  H205  1  0.63400000  0.57110000  0.98050000  1
  H  H206  1  0.74520000  0.83910000  0.86750000  1
  H  H207  1  0.02610000  0.66620000  0.58500000  1
  H  H208  1  0.55020000  0.60990000  0.05970000  1
  H  H209  1  0.48620000  0.29420000  0.12340000  1
  H  H210  1  0.33030000  0.08650000  0.27410000  1
  H  H211  1  0.74190000  0.07480000  0.86240000  1
  H  H212  1  0.19200000  0.62620000  0.41120000  1
  H  H213  1  0.65470000  0.12070000  0.94790000  1
  H  H214  1  0.31700000  0.30990000  0.28490000  1
  H  H215  1  0.36150000  0.41270000  0.23870000  1
  H  H216  1  0.19170000  0.24590000  0.40690000  1
  H  H217  1  0.02300000  0.42640000  0.57180000  1
  H  H218  1  0.42990000  0.05960000  0.16400000  1
  H  H219  1  0.70270000  0.72230000  0.89010000  1
  H  H220  1  0.32090000  0.48450000  0.26970000  1
  H  H221  1  0.78120000  0.42750000  0.80830000  1
  H  H222  1  0.97370000  0.84060000  0.61460000  1
  H  H223  1  0.57030000  0.48770000  0.01710000  1
  H  H224  1  0.50870000  0.29020000  0.06800000  1
  H  H225  1  0.41170000  0.11460000  0.15940000  1
  H  H226  1  0.84140000  0.42970000  0.72890000  1
  H  H227  1  0.55800000  0.01710000  0.01230000  1
  H  H228  1  0.01050000  0.83600000  0.55960000  1
  H  H229  1  0.91990000  0.94270000  0.64690000  1
  H  H230  1  0.09250000  0.64330000  0.47270000  1
  H  H231  1  0.71510000  0.56640000  0.84500000  1
  H  H232  1  0.07510000  0.01230000  0.48290000  1
  H  H233  1  0.24020000  0.43740000  0.31740000  1
  H  H234  1  0.97130000  0.98440000  0.58300000  1
  H  H235  1  0.63060000  0.76150000  0.92290000  1
  H  H236  1  0.66010000  0.05970000  0.89010000  1
  H  H237  1  0.38730000  0.36750000  0.16090000  1
  H  H238  1  0.14100000  0.18380000  0.40480000  1
  H  H239  1  0.07370000  0.56600000  0.47140000  1
  H  H240  1  0.46130000  0.48440000  0.08300000  1
  H  H241  1  0.55430000  0.91700000  0.98440000  1
  H  H242  1  0.19760000  0.51550000  0.34070000  1
  H  H243  1  0.11920000  0.50860000  0.41680000  1
  H  H244  1  0.66840000  0.97750000  0.86230000  1
  H  H245  1  0.17590000  0.09590000  0.35330000  1
  H  H246  1  0.65300000  0.11290000  0.87550000  1
  H  H247  1  0.71960000  0.87660000  0.79420000  1
  H  H248  1  0.30300000  0.31800000  0.21040000  1
  H  H249  1  0.12340000  0.46410000  0.38950000  1
  H  H250  1  0.56680000  0.85310000  0.94270000  1
  H  H251  1  0.29890000  0.06800000  0.20980000  1
  H  H252  1  0.53070000  0.63770000  0.97750000  1
  H  H253  1  0.46930000  0.36230000  0.02250000  1
  H  H254  1  0.70110000  0.93200000  0.79020000  1
  H  H255  1  0.43320000  0.14690000  0.05730000  1
  H  H256  1  0.87660000  0.53590000  0.61050000  1
  H  H257  1  0.69700000  0.68200000  0.78960000  1
  H  H258  1  0.28040000  0.12340000  0.20580000  1
  H  H259  1  0.34700000  0.88710000  0.12450000  1
  H  H260  1  0.82410000  0.90410000  0.64670000  1
  H  H261  1  0.33160000  0.02250000  0.13770000  1
  H  H262  1  0.88080000  0.49140000  0.58320000  1
  H  H263  1  0.80240000  0.48450000  0.65930000  1
  H  H264  1  0.44570000  0.08300000  0.01560000  1
  H  H265  1  0.53870000  0.51560000  0.91700000  1
  H  H266  1  0.92630000  0.43400000  0.52860000  1
  H  H267  1  0.85900000  0.81620000  0.59520000  1
  H  H268  1  0.61270000  0.63250000  0.83910000  1
  H  H269  1  0.33990000  0.94030000  0.10990000  1
  H  H270  1  0.36940000  0.23850000  0.07710000  1
  H  H271  1  0.02870000  0.01560000  0.41700000  1
  H  H272  1  0.75980000  0.56260000  0.68260000  1
  H  H273  1  0.92490000  0.98770000  0.51710000  1
  H  H274  1  0.28490000  0.43360000  0.15500000  1
  H  H275  1  0.90750000  0.35670000  0.52730000  1
  H  H276  1  0.08010000  0.05730000  0.35310000  1
  H  H277  1  0.98950000  0.16400000  0.44040000  1
  H  H278  1  0.44200000  0.98290000  0.98770000  1
  H  H279  1  0.15860000  0.57030000  0.27110000  1
  H  H280  1  0.58830000  0.88540000  0.84060000  1
  H  H281  1  0.49130000  0.70980000  0.93200000  1
  H  H282  1  0.42970000  0.51230000  0.98290000  1
  H  H283  1  0.02630000  0.15940000  0.38540000  1
  H  H284  1  0.21880000  0.57250000  0.19170000  1
  H  H285  1  0.67910000  0.51550000  0.73030000  1
  H  H286  1  0.29730000  0.27770000  0.10990000  1
  H  H287  1  0.57010000  0.94040000  0.83600000  1
  H  H288  1  0.97700000  0.57360000  0.42820000  1
  H  H289  1  0.80830000  0.75410000  0.59310000  1
  H  H290  1  0.63850000  0.58730000  0.76130000  1
  H  H291  1  0.68300000  0.69010000  0.71510000  1
  H  H292  1  0.34530000  0.87930000  0.05210000  1
  H  H293  1  0.80800000  0.37380000  0.58880000  1
  H  H294  1  0.25810000  0.92520000  0.13760000  1
  H  H295  1  0.66970000  0.91350000  0.72590000  1
  H  H296  1  0.51380000  0.70580000  0.87660000  1
  H  H297  1  0.44980000  0.39010000  0.94030000  1
  H  H298  1  0.97390000  0.33380000  0.41500000  1
  H  H299  1  0.25480000  0.16090000  0.13250000  1
  H  H300  1  0.36600000  0.42890000  0.01950000  1
  H  H301  1  0.35440000  0.30080000  0.03020000  1
  H  H302  1  0.80280000  0.42700000  0.57780000  1
  H  H303  1  0.18060000  0.36400000  0.19580000  1
  H  H304  1  0.47080000  0.85330000  0.90410000  1
  H  H305  1  0.07100000  0.52300000  0.30160000  1
  H  H306  1  0.10790000  0.07710000  0.26150000  1
  H  H307  1  0.73880000  0.49650000  0.62810000  1
  H  H308  1  0.29490000  0.01950000  0.07110000  1
  H  H309  1  0.86970000  0.45100000  0.49360000  1
  H  H310  1  0.50950000  0.55730000  0.85310000  1
  H  H311  1  0.27420000  0.23870000  0.08730000  1
  H  H312  1  0.47150000  0.37550000  0.88710000  1
  H  H313  1  0.15520000  0.03020000  0.19920000  1
  H  H314  1  0.30460000  0.93330000  0.04670000  1
  H  H315  1  0.69720000  0.57500000  0.65100000  1
  H  H316  1  0.73410000  0.12450000  0.61290000  1
  H  H317  1  0.40610000  0.66400000  0.94040000  1
  H  H318  1  0.96740000  0.63730000  0.37910000  1
  H  H319  1  0.72460000  0.05210000  0.62070000  1
  H  H320  1  0.84240000  0.37820000  0.49780000  1
  H  H321  1  0.78020000  0.10990000  0.55970000  1
  H  H322  1  0.85410000  0.13770000  0.47750000  1
  H  H323  1  0.91680000  0.27410000  0.41350000  1
  H  H324  1  0.88350000  0.60630000  0.44490000  1
  H  H325  1  0.07140000  0.40140000  0.25680000  1
  H  H326  1  0.97780000  0.59320000  0.34940000  1
  H  H327  1  0.39570000  0.36240000  0.92520000  1
  H  H328  1  0.30540000  0.26970000  0.01550000  1
  H  H329  1  0.22940000  0.87380000  0.08880000  1
  H  H330  1  0.12690000  0.28490000  0.19010000  1
  H  H331  1  0.67910000  0.42520000  0.63760000  1
  H  H332  1  0.59280000  0.60990000  0.72230000  1
  H  H333  1  0.55350000  0.57710000  0.76150000  1
  H  H334  1  0.61540000  0.53020000  0.69920000  1
  H  H335  1  0.42890000  0.65940000  0.88540000  1
  H  H336  1  0.39560000  0.77410000  0.91350000  1
  H  H337  1  0.07510000  0.01550000  0.23030000  1
  H  H338  1  0.73790000  0.04670000  0.56670000  1
  H  H339  1  0.12100000  0.21040000  0.18200000  1
  H  H340  1  0.22780000  0.34900000  0.07500000  1
  H  H341  1  0.86690000  0.20980000  0.43200000  1
  H  H342  1  0.07500000  0.10990000  0.22230000  1
  H  H343  1  0.81440000  0.07110000  0.48050000  1
  H  H344  1  0.98300000  0.92750000  0.30830000  1
  H  H345  1  0.03810000  0.48210000  0.25210000  1
  H  H346  1  0.21850000  0.15500000  0.06640000  1
  H  H347  1  0.35130000  0.45330000  0.93330000  1
  H  H348  1  0.65980000  0.99780000  0.62180000  1
  H  H349  1  0.90380000  0.20580000  0.37660000  1
  H  H350  1  0.28160000  0.87820000  0.99780000  1
  H  H351  1  0.61110000  0.91500000  0.66620000  1
  H  H352  1  0.39740000  0.44790000  0.87930000  1
  H  H353  1  0.72330000  0.37930000  0.55210000  1
  H  H354  1  0.01290000  0.08730000  0.26130000  1
  H  H355  1  0.45420000  0.90480000  0.81620000  1
  H  H356  1  0.67180000  0.75680000  0.59860000  1
  H  H357  1  0.19240000  0.92700000  0.07780000  1
  H  H358  1  0.64140000  0.38710000  0.62450000  1
  H  H359  1  0.13660000  0.99650000  0.12810000  1
  H  H360  1  0.71540000  0.43330000  0.54670000  1
  H  H361  1  0.26470000  0.37190000  0.99650000  1
  H  H362  1  0.62360000  0.69580000  0.63600000  1
  H  H363  1  0.92920000  0.80170000  0.33010000  1
  H  H364  1  0.68330000  0.13760000  0.57480000  1
  H  H365  1  0.91570000  0.13250000  0.33910000  1
  H  H366  1  0.03240000  0.66620000  0.21300000  1
  H  H367  1  0.17760000  0.31740000  0.06260000  1
  H  H368  1  0.20850000  0.85670000  0.02730000  1
  H  H369  1  0.06100000  0.69830000  0.16990000  1
  H  H370  1  0.60320000  0.08880000  0.62620000  1
  H  H371  1  0.00000000  0.92970000  0.22890000  1
  H  H372  1  0.37490000  0.59590000  0.85330000  1
  H  H373  1  0.07680000  0.07500000  0.15100000  1
  H  H374  1  0.70980000  0.75210000  0.51790000  1
  H  H375  1  0.89800000  0.69320000  0.32640000  1
  H  H376  1  0.60990000  0.44030000  0.60990000  1
  H  H377  1  0.29130000  0.19170000  0.92750000  1
  H  H378  1  0.87350000  0.06640000  0.34500000  1
  H  H379  1  0.05380000  0.98450000  0.15930000  1
  H  H380  1  0.82070000  0.65810000  0.38910000  1
  H  H381  1  0.56520000  0.02730000  0.64330000  1
  H  H382  1  0.91320000  0.65030000  0.29370000  1
  H  H383  1  0.91400000  0.78020000  0.28760000  1
  H  H384  1  0.91160000  0.83380000  0.28700000  1
  H  H385  1  0.21310000  0.34070000  0.98450000  1
  H  H386  1  0.27020000  0.42220000  0.92700000  1
  H  H387  1  0.98180000  0.71980000  0.21240000  1
  H  H388  1  0.80900000  0.85660000  0.38440000  1
  H  H389  1  0.61940000  0.07780000  0.57300000  1
  H  H390  1  0.27730000  0.83380000  0.91500000  1
  H  H391  1  0.31820000  0.41120000  0.87380000  1
  H  H392  1  0.93760000  0.40690000  0.25410000  1
  H  H393  1  0.83440000  0.61560000  0.35660000  1
  H  H394  1  0.63670000  0.99360000  0.54900000  1
  H  H395  1  0.61450000  0.51950000  0.57110000  1
  H  H396  1  0.04460000  0.19580000  0.13600000  1
  H  H397  1  0.18570000  0.95100000  0.99360000  1
  H  H398  1  0.02120000  0.61090000  0.15810000  1
  H  H399  1  0.99500000  0.06260000  0.18260000  1
  H  H400  1  0.77180000  0.35330000  0.40410000  1
  H  H401  1  0.27040000  0.68380000  0.90480000  1
  H  H402  1  0.48660000  0.71040000  0.68200000  1
  H  H403  1  0.05000000  0.64340000  0.11560000  1
  H  H404  1  0.22890000  0.27110000  0.92970000  1
  H  H405  1  0.27940000  0.50220000  0.87820000  1
  H  H406  1  0.40140000  0.90690000  0.75410000  1
  H  H407  1  0.68540000  0.19920000  0.46980000  1
  H  H408  1  0.50820000  0.52250000  0.63770000  1
  H  H409  1  0.79310000  0.79370000  0.34970000  1
  H  H410  1  0.82480000  0.40480000  0.31620000  1
  H  H411  1  0.11110000  0.93400000  0.02860000  1
  H  H412  1  0.63310000  0.12810000  0.50350000  1
  H  H413  1  0.42330000  0.56800000  0.70980000  1
  H  H414  1  0.79020000  0.88910000  0.34190000  1
  H  H415  1  0.17930000  0.50640000  0.95100000  1
  H  H416  1  0.04460000  0.99140000  0.08320000  1
  H  H417  1  0.91180000  0.19010000  0.21510000  1
  H  H418  1  0.56010000  0.65500000  0.56640000  1
  H  H419  1  0.08750000  0.38950000  0.03590000  1
  H  H420  1  0.83140000  0.18200000  0.28960000  1
  H  H421  1  0.12780000  0.41680000  0.99140000  1
  H  H422  1  0.01020000  0.55510000  0.10630000  1
  H  H423  1  0.54510000  0.02860000  0.56600000  1
  H  H424  1  0.68500000  0.26150000  0.42290000  1
  H  H425  1  0.98380000  0.86270000  0.12090000  1
  H  H426  1  0.62740000  0.80160000  0.47700000  1
  H  H427  1  0.90880000  0.67360000  0.19320000  1
  H  H428  1  0.39040000  0.62340000  0.70580000  1
  H  H429  1  0.89560000  0.97700000  0.19840000  1
  H  H430  1  0.23580000  0.47270000  0.85670000  1
  H  H431  1  0.91760000  0.80680000  0.17360000  1
  H  H432  1  0.75460000  0.71300000  0.33380000  1
  H  H433  1  0.39810000  0.78490000  0.69010000  1
  H  H434  1  0.97700000  0.03590000  0.11050000  1
  H  H435  1  0.93650000  0.70630000  0.15030000  1
  H  H436  1  0.80580000  0.71240000  0.28020000  1
  H  H437  1  0.45180000  0.66090000  0.63250000  1
  H  H438  1  0.30910000  0.58650000  0.77410000  1
  H  H439  1  0.77560000  0.82640000  0.30680000  1
  H  H440  1  0.63740000  0.35310000  0.44270000  1
  H  H441  1  0.67280000  0.84940000  0.40680000  1
  H  H442  1  0.65180000  0.15100000  0.42500000  1
  H  H443  1  0.58740000  0.48290000  0.48770000  1
  H  H444  1  0.59060000  0.23030000  0.48450000  1
  H  H445  1  0.68490000  0.22230000  0.39010000  1
  H  H446  1  0.13970000  0.47140000  0.93400000  1
  H  H447  1  0.97280000  0.25680000  0.09860000  1
  H  H448  1  0.92040000  0.90680000  0.15060000  1
  H  H449  1  0.09400000  0.30160000  0.97700000  1
  H  H450  1  0.76910000  0.66990000  0.30170000  1
  H  H451  1  0.67160000  0.94490000  0.39370000  1
  H  H452  1  0.85720000  0.84970000  0.20630000  1
  H  H453  1  0.15550000  0.74590000  0.90690000  1
  H  H454  1  0.25930000  0.16990000  0.80170000  1
  H  H455  1  0.53830000  0.15930000  0.51550000  1
  H  H456  1  0.97880000  0.92640000  0.07180000  1
  H  H457  1  0.19340000  0.11560000  0.85660000  1
  H  H458  1  0.74040000  0.13600000  0.30420000  1
  H  H459  1  0.53600000  0.08320000  0.50860000  1
  H  H460  1  0.02020000  0.25210000  0.01790000  1
  H  H461  1  0.89530000  0.62090000  0.13730000  1
  H  H462  1  0.19860000  0.21300000  0.83380000  1
  H  H463  1  0.54430000  0.41700000  0.48440000  1
  H  H464  1  0.27040000  0.90140000  0.75680000  1
  H  H465  1  0.68570000  0.38540000  0.34060000  1
  H  H466  1  0.19230000  0.58500000  0.83380000  1
  H  H467  1  0.48710000  0.88950000  0.53590000  1
  H  H468  1  0.94940000  0.57180000  0.07360000  1
  H  H469  1  0.92900000  0.65060000  0.09320000  1
  H  H470  1  0.59480000  0.92820000  0.42640000  1
  H  H471  1  0.13210000  0.15810000  0.88910000  1
  H  H472  1  0.77230000  0.01790000  0.24790000  1
  H  H473  1  0.79840000  0.78760000  0.21980000  1
  H  H474  1  0.58950000  0.69170000  0.42750000  1
  H  H475  1  0.65350000  0.87910000  0.36270000  1
  H  H476  1  0.60020000  0.26130000  0.41270000  1
  H  H477  1  0.34650000  0.55960000  0.66400000  1
  H  H478  1  0.06530000  0.10630000  0.94490000  1
  H  H479  1  0.44240000  0.81740000  0.56260000  1
  C  C480  1  0.86147000  0.86106000  0.13760000  1
  C  C481  1  0.23318000  0.88254000  0.76290000  1
  C  C482  1  0.18648000  0.87830000  0.80874000  1
  C  C483  1  0.18898000  0.58676000  0.80268000  1
  C  C484  1  0.07047000  0.08586000  0.91940000  1
  C  C485  1  0.66872000  0.41072000  0.31924000  1
  C  C486  1  0.79500000  0.80678000  0.19202000  1
  C  C487  1  0.89101000  0.46311000  0.09327000  1
  C  C488  1  0.25513000  0.59018000  0.72196000  1
  C  C489  1  0.74130000  0.41236000  0.23264000  1
  C  C490  1  0.44200000  0.90107000  0.52053000  1
  C  C491  1  0.13700000  0.16937000  0.82043000  1
  C  C492  1  0.80287000  0.09671000  0.15455000  1
  C  C493  1  0.22713000  0.86057000  0.72657000  1
  C  C494  1  0.39761000  0.24917000  0.55221000  1
  C  C495  1  0.13185000  0.85033000  0.81737000  1
  C  C496  1  0.07108000  0.11405000  0.87519000  1
  C  C497  1  0.04258000  0.65455000  0.90329000  1
  C  C498  1  0.39332000  0.82952000  0.55044000  1
  C  C499  1  0.27761000  0.97277000  0.66281000  1
  C  C500  1  0.05373000  0.37519000  0.88595000  1
  C  C501  1  0.38576000  0.29638000  0.55370000  1
  C  C502  1  0.85243000  0.95375000  0.08599000  1
  C  C503  1  0.40054000  0.58239000  0.53153000  1
  C  C504  1  0.34730000  0.75830000  0.58230000  1
  C  C505  1  0.34367000  0.08060000  0.58586000  1
  C  C506  1  0.31487000  0.12481000  0.61405000  1
  C  C507  1  0.41560000  0.85979000  0.50901000  1
  C  C508  1  0.92412000  0.76046000  0.00030000  1
  C  C509  1  0.01013000  0.41940000  0.91414000  1
  C  C510  1  0.18458000  0.00030000  0.73954000  1
  C  C511  1  0.37030000  0.93481000  0.55159000  1
  C  C512  1  0.94042000  0.83719000  0.97277000  1
  C  C513  1  0.83312000  0.50340000  0.07616000  1
  C  C514  1  0.17303000  0.83349000  0.73545000  1
  C  C515  1  0.59661000  0.40629000  0.31049000  1
  C  C516  1  0.36541000  0.78869000  0.54089000  1
  C  C517  1  0.88119000  0.73108000  0.02474000  1
  C  C518  1  0.12565000  0.82843000  0.77967000  1
  C  C519  1  0.37487000  0.54337000  0.52989000  1
  C  C520  1  0.34543000  0.61984000  0.55630000  1
  C  C521  1  0.20620000  0.30678000  0.69202000  1
  C  C522  1  0.18057000  0.59267000  0.71459000  1
  C  C523  1  0.51402000  0.36895000  0.37901000  1
  C  C524  1  0.93842000  0.41401000  0.95375000  1
  C  C525  1  0.85412000  0.09327000  0.03689000  1
  C  C526  1  0.88915000  0.80855000  0.00115000  1
  C  C527  1  0.19770000  0.00115000  0.69145000  1
  C  C528  1  0.36299000  0.23108000  0.52474000  1
  C  C529  1  0.79482000  0.24826000  0.09150000  1
  C  C530  1  0.52911000  0.40745000  0.35573000  1
  C  C531  1  0.11227000  0.02474000  0.76892000  1
  C  C532  1  0.99608000  0.73710000  0.88254000  1
  C  C533  1  0.54592000  0.22033000  0.32843000  1
  C  C534  1  0.99522000  0.69126000  0.87830000  1
  C  C535  1  0.04257000  0.32043000  0.83063000  1
  C  C536  1  0.45023000  0.37264000  0.41870000  1
  C  C537  1  0.51782000  0.18263000  0.35033000  1
  C  C538  1  0.33791000  0.32690000  0.52788000  1
  C  C539  1  0.75097000  0.52176000  0.11470000  1
  C  C540  1  0.11368000  0.59150000  0.75174000  1
  C  C541  1  0.96253000  0.97947000  0.90107000  1
  C  C542  1  0.19363000  0.17957000  0.66937000  1
  C  C543  1  0.22253000  0.13760000  0.63894000  1
  C  C544  1  0.99907000  0.36240000  0.86106000  1
  C  C545  1  0.48125000  0.44941000  0.37609000  1
  C  C546  1  0.92189000  0.94841000  0.93481000  1
  C  C547  1  0.44739000  0.03689000  0.40673000  1
  C  C548  1  0.80101000  0.74917000  0.05221000  1
  C  C549  1  0.30618000  0.08599000  0.54625000  1
  C  C550  1  0.29449000  0.54209000  0.55373000  1
  C  C551  1  0.26589000  0.61953000  0.57989000  1
  C  C552  1  0.86360000  0.59893000  0.97947000  1
  C  C553  1  0.41268000  0.99660000  0.42384000  1
  C  C554  1  0.80731000  0.82690000  0.02788000  1
  C  C555  1  0.41858000  0.45102000  0.41602000  1
  C  C556  1  0.83652000  0.07616000  0.99660000  1
  C  C557  1  0.49348000  0.26455000  0.33349000  1
  C  C558  1  0.23953000  0.58017000  0.58077000  1
  C  C559  1  0.72676000  0.28541000  0.09267000  1
  C  C560  1  0.27073000  0.50045000  0.54749000  1
  C  C561  1  0.76416000  0.79638000  0.05370000  1
  C  C562  1  0.31512000  0.26046000  0.50030000  1
  C  C563  1  0.95370000  0.77343000  0.86057000  1
  C  C564  1  0.43522000  0.19126000  0.37830000  1
  C  C565  1  0.72426000  0.19732000  0.08676000  1
  C  C566  1  0.13421000  0.02788000  0.67310000  1
  C  C567  1  0.12680000  0.33063000  0.67957000  1
  C  C568  1  0.85670000  0.56519000  0.94841000  1
  C  C569  1  0.39958000  0.15455000  0.40329000  1
  C  C570  1  0.30115000  0.30855000  0.50115000  1
  C  C571  1  0.05018000  0.05221000  0.75083000  1
  C  C572  1  0.94922000  0.68263000  0.85033000  1
  C  C573  1  0.69570000  0.56600000  0.10120000  1
  C  C574  1  0.10178000  0.19202000  0.69322000  1
  C  C575  1  0.54308000  0.09150000  0.25174000  1
  C  C576  1  0.98702000  0.30798000  0.80678000  1
  C  C577  1  0.92461000  0.99099000  0.85979000  1
  C  C578  1  0.13987000  0.36106000  0.63760000  1
  C  C579  1  0.78440000  0.64021000  0.99099000  1
  C  C580  1  0.94376000  0.94956000  0.82952000  1
  C  C581  1  0.41230000  0.27343000  0.36057000  1
  C  C582  1  0.38743000  0.97824000  0.38530000  1
  C  C583  1  0.38428000  0.23710000  0.38254000  1
  C  C584  1  0.06054000  0.05370000  0.70362000  1
  C  C585  1  0.36290000  0.93400000  0.39880000  1
  C  C586  1  0.68030000  0.41923000  0.08017000  1
  C  C587  1  0.13107000  0.91870000  0.62736000  1
  C  C588  1  0.77273000  0.11470000  0.97824000  1
  C  C589  1  0.91319000  0.52723000  0.83719000  1
  C  C590  1  0.65469000  0.27804000  0.09018000  1
  C  C591  1  0.90848000  0.76455000  0.83349000  1
  C  C592  1  0.65366000  0.23264000  0.08764000  1
  C  C593  1  0.10697000  0.87901000  0.63105000  1
  C  C594  1  0.61458000  0.42011000  0.11953000  1
  C  C595  1  0.90532000  0.72033000  0.82843000  1
  C  C596  1  0.72882000  0.45251000  0.00045000  1
  C  C597  1  0.68133000  0.00045000  0.04749000  1
  C  C598  1  0.63440000  0.56690000  0.09390000  1
  C  C599  1  0.34200000  0.58440000  0.38580000  1
  C  C600  1  0.51217000  0.09267000  0.21459000  1
  C  C601  1  0.42158000  0.08676000  0.30268000  1
  C  C602  1  0.77328000  0.67048000  0.94956000  1
  C  C603  1  0.24962000  0.33719000  0.47277000  1
  C  C604  1  0.16540000  0.91602000  0.54898000  1
  C  C605  1  0.11516000  0.85573000  0.59255000  1
  C  C606  1  0.66342000  0.44627000  0.04209000  1
  C  C607  1  0.27170000  0.59390000  0.43310000  1
  C  C608  1  0.29520000  0.93310000  0.40610000  1
  C  C609  1  0.89030000  0.49885000  0.80855000  1
  C  C610  1  0.76170000  0.10120000  0.93400000  1
  C  C611  1  0.90630000  0.95911000  0.78869000  1
  C  C612  1  0.10783000  0.45375000  0.58599000  1
  C  C613  1  0.14266000  0.87609000  0.55059000  1
  C  C614  1  0.92960000  0.91770000  0.75830000  1
  C  C615  1  0.27220000  0.88580000  0.41560000  1
  C  C616  1  0.09290000  0.81049000  0.59371000  1
  C  C617  1  0.06032000  0.38595000  0.62481000  1
  C  C618  1  0.92442000  0.49970000  0.76046000  1
  C  C619  1  0.18178000  0.04749000  0.49955000  1
  C  C620  1  0.59953000  0.08017000  0.08077000  1
  C  C621  1  0.75843000  0.87264000  0.91870000  1
  C  C622  1  0.57944000  0.31924000  0.08928000  1
  C  C623  1  0.60969000  0.04209000  0.05373000  1
  C  C624  1  0.83519000  0.47212000  0.82690000  1
  C  C625  1  0.57360000  0.61420000  0.08440000  1
  C  C626  1  0.07573000  0.41414000  0.58060000  1
  C  C627  1  0.43273000  0.09018000  0.22196000  1
  C  C628  1  0.53473000  0.44370000  0.11984000  1
  C  C629  1  0.69499000  0.71131000  0.95911000  1
  C  C630  1  0.38630000  0.08764000  0.26736000  1
  C  C631  1  0.39440000  0.41770000  0.25830000  1
  C  C632  1  0.20310000  0.60120000  0.43400000  1
  C  C633  1  0.90593000  0.47526000  0.73108000  1
  C  C634  1  0.34590000  0.45911000  0.28869000  1
  C  C635  1  0.70130000  0.09390000  0.93310000  1
  C  C636  1  0.71438000  0.95102000  0.91602000  1
  C  C637  1  0.19489000  0.44841000  0.43481000  1
  C  C638  1  0.58176000  0.47011000  0.04337000  1
  C  C639  1  0.73802000  0.86895000  0.87901000  1
  C  C640  1  0.87862000  0.61746000  0.73710000  1
  C  C641  1  0.53469000  0.11953000  0.07989000  1
  C  C642  1  0.81786000  0.44630000  0.79638000  1
  C  C643  1  0.02606000  0.73264000  0.58764000  1
  C  C644  1  0.13433000  0.61470000  0.47824000  1
  C  C645  1  0.15178000  0.05373000  0.45791000  1
  C  C646  1  0.27716000  0.44956000  0.32952000  1
  C  C647  1  0.68790000  0.74170000  0.91770000  1
  C  C648  1  0.85322000  0.44779000  0.74917000  1
  C  C649  1  0.01204000  0.81924000  0.58928000  1
  C  C650  1  0.94587000  0.59671000  0.65455000  1
  C  C651  1  0.17970000  0.08077000  0.41983000  1
  C  C652  1  0.51707000  0.46847000  0.08239000  1
  C  C653  1  0.50290000  0.31049000  0.09371000  1
  C  C654  1  0.81427000  0.63943000  0.77343000  1
  C  C655  1  0.09072000  0.57616000  0.49660000  1
  C  C656  1  0.22461000  0.49099000  0.35979000  1
  C  C657  1  0.55187000  0.04337000  0.02989000  1
  C  C658  1  0.63040000  0.58398000  0.95102000  1
  C  C659  1  0.39868000  0.08928000  0.18076000  1
  C  C660  1  0.99166000  0.69732000  0.58676000  1
  C  C661  1  0.68780000  0.08440000  0.88580000  1
  C  C662  1  0.69325000  0.94941000  0.87609000  1
  C  C663  1  0.97709000  0.77804000  0.59018000  1
  C  C664  1  0.87352000  0.62170000  0.69126000  1
  C  C665  1  0.70771000  0.90745000  0.85573000  1
  C  C666  1  0.15693000  0.47947000  0.40107000  1
  C  C667  1  0.01572000  0.59327000  0.53689000  1
  C  C668  1  0.09524000  0.02989000  0.45663000  1
  C  C669  1  0.67713000  0.58130000  0.87264000  1
  C  C670  1  0.26625000  0.32843000  0.27967000  1
  C  C671  1  0.13458000  0.25174000  0.40850000  1
  C  C672  1  0.47843000  0.11984000  0.05630000  1
  C  C673  1  0.15422000  0.07989000  0.38047000  1
  C  C674  1  0.43656000  0.35573000  0.09255000  1
  C  C675  1  0.90173000  0.94370000  0.61984000  1
  C  C676  1  0.56934000  0.62391000  0.94941000  1
  C  C677  1  0.20045000  0.35033000  0.31737000  1
  C  C678  1  0.48554000  0.08239000  0.03153000  1
  C  C679  1  0.93207000  0.96847000  0.58239000  1
  C  C680  1  0.38297000  0.37901000  0.13105000  1
  C  C681  1  0.10484000  0.21459000  0.40733000  1
  C  C682  1  0.74197000  0.66651000  0.76455000  1
  C  C683  1  0.31339000  0.09371000  0.18951000  1
  C  C684  1  0.68661000  0.90629000  0.81049000  1
  C  C685  1  0.25803000  0.33349000  0.23545000  1
  C  C686  1  0.89516000  0.78541000  0.59267000  1
  C  C687  1  0.61703000  0.62099000  0.86895000  1
  C  C688  1  0.06793000  0.03153000  0.41761000  1
  C  C689  1  0.51446000  0.91761000  0.96847000  1
  C  C690  1  0.79955000  0.64967000  0.68263000  1
  C  C691  1  0.43066000  0.37609000  0.05059000  1
  C  C692  1  0.09827000  0.05630000  0.38016000  1
  C  C693  1  0.56344000  0.64427000  0.90745000  1
  C  C694  1  0.84578000  0.92011000  0.61953000  1
  C  C695  1  0.52157000  0.88016000  0.94370000  1
  C  C696  1  0.86542000  0.74826000  0.59150000  1
  C  C697  1  0.73375000  0.67157000  0.72033000  1
  C  C698  1  0.32287000  0.41870000  0.12736000  1
  C  C699  1  0.90476000  0.97011000  0.54337000  1
  C  C700  1  0.98428000  0.40673000  0.46311000  1
  C  C701  1  0.84307000  0.52053000  0.59893000  1
  C  C702  1  0.29229000  0.09255000  0.14427000  1
  C  C703  1  0.12648000  0.37830000  0.30874000  1
  C  C704  1  0.02291000  0.22196000  0.40982000  1
  C  C705  1  0.30675000  0.05059000  0.12391000  1
  C  C706  1  0.31220000  0.91560000  0.11420000  1
  C  C707  1  0.00834000  0.30268000  0.41324000  1
  C  C708  1  0.60132000  0.91072000  0.81924000  1
  C  C709  1  0.36960000  0.41602000  0.04898000  1
  C  C710  1  0.44813000  0.95663000  0.97011000  1
  C  C711  1  0.77539000  0.50901000  0.64021000  1
  C  C712  1  0.90928000  0.42384000  0.50340000  1
  C  C713  1  0.18573000  0.36057000  0.22657000  1
  C  C714  1  0.49710000  0.68951000  0.90629000  1
  C  C715  1  0.48293000  0.53153000  0.91761000  1
  C  C716  1  0.82030000  0.91923000  0.58017000  1
  C  C717  1  0.05413000  0.40329000  0.34545000  1
  C  C718  1  0.98796000  0.18076000  0.41072000  1
  C  C719  1  0.14678000  0.55221000  0.25083000  1
  C  C720  1  0.31210000  0.25830000  0.08230000  1
  C  C721  1  0.72284000  0.55044000  0.67048000  1
  C  C722  1  0.84822000  0.94627000  0.54209000  1
  C  C723  1  0.86567000  0.38530000  0.52176000  1
  C  C724  1  0.97394000  0.26736000  0.41236000  1
  C  C725  1  0.18214000  0.55370000  0.20362000  1
  C  C726  1  0.46531000  0.88047000  0.92011000  1
  C  C727  1  0.12138000  0.38254000  0.26290000  1
  C  C728  1  0.26198000  0.13105000  0.12099000  1
  C  C729  1  0.41824000  0.52989000  0.95663000  1
  C  C730  1  0.80511000  0.55159000  0.56519000  1
  C  C731  1  0.28562000  0.04898000  0.08398000  1
  C  C732  1  0.29870000  0.90610000  0.06690000  1
  C  C733  1  0.65410000  0.54089000  0.71131000  1
  C  C734  1  0.09407000  0.52474000  0.26892000  1
  C  C735  1  0.79690000  0.39880000  0.56600000  1
  C  C736  1  0.60560000  0.58230000  0.74170000  1
  C  C737  1  0.61370000  0.91236000  0.73264000  1
  C  C738  1  0.30501000  0.28869000  0.04089000  1
  C  C739  1  0.46527000  0.55630000  0.88016000  1
  C  C740  1  0.56727000  0.90982000  0.77804000  1
  C  C741  1  0.92427000  0.58586000  0.41940000  1
  C  C742  1  0.42640000  0.38580000  0.91560000  1
  C  C743  1  0.16481000  0.52788000  0.17310000  1
  C  C744  1  0.39031000  0.95791000  0.94627000  1
  C  C745  1  0.42056000  0.68076000  0.91072000  1
  C  C746  1  0.24157000  0.12736000  0.08130000  1
  C  C747  1  0.40047000  0.91983000  0.91923000  1
  C  C748  1  0.81822000  0.95251000  0.50045000  1
  C  C749  1  0.07558000  0.50030000  0.23954000  1
  C  C750  1  0.93968000  0.61405000  0.37519000  1
  C  C751  1  0.90710000  0.18951000  0.40629000  1
  C  C752  1  0.72780000  0.11420000  0.58440000  1
  C  C753  1  0.07040000  0.08230000  0.24170000  1
  C  C754  1  0.85734000  0.12391000  0.44941000  1
  C  C755  1  0.89217000  0.54625000  0.41401000  1
  C  C756  1  0.09370000  0.04089000  0.21131000  1
  C  C757  1  0.23830000  0.89880000  0.06600000  1
  C  C758  1  0.10970000  0.50115000  0.19145000  1
  C  C759  1  0.70480000  0.06690000  0.59390000  1
  C  C760  1  0.72830000  0.40610000  0.56690000  1
  C  C761  1  0.33658000  0.55373000  0.95791000  1
  C  C762  1  0.88484000  0.14427000  0.40745000  1
  C  C763  1  0.83460000  0.08398000  0.45102000  1
  C  C764  1  0.75038000  0.66281000  0.52723000  1
  C  C765  1  0.22672000  0.32952000  0.05044000  1
  C  C766  1  0.57842000  0.91324000  0.69732000  1
  C  C767  1  0.48783000  0.90733000  0.78541000  1
  C  C768  1  0.65800000  0.41560000  0.61420000  1
  C  C769  1  0.36560000  0.43310000  0.90610000  1
  C  C770  1  0.31867000  0.99955000  0.95251000  1
  C  C771  1  0.27118000  0.54749000  0.99955000  1
  C  C772  1  0.09468000  0.27967000  0.17157000  1
  C  C773  1  0.38542000  0.57989000  0.88047000  1
  C  C774  1  0.89303000  0.12099000  0.36895000  1
  C  C775  1  0.34634000  0.76736000  0.91236000  1
  C  C776  1  0.09152000  0.23545000  0.16651000  1
  C  C777  1  0.34531000  0.72196000  0.90982000  1
  C  C778  1  0.08681000  0.47277000  0.16281000  1
  C  C779  1  0.22727000  0.88530000  0.02176000  1
  C  C780  1  0.86893000  0.08130000  0.37264000  1
  C  C781  1  0.31970000  0.58077000  0.91983000  1
  C  C782  1  0.63710000  0.06600000  0.60120000  1
  C  C783  1  0.93946000  0.94630000  0.29638000  1
  C  C784  1  0.61572000  0.76290000  0.61746000  1
  C  C785  1  0.61257000  0.02176000  0.61470000  1
  C  C786  1  0.58770000  0.72657000  0.63943000  1
  C  C787  1  0.05624000  0.05044000  0.17048000  1
  C  C788  1  0.21560000  0.35979000  0.00901000  1
  C  C789  1  0.86013000  0.63894000  0.36240000  1
  C  C790  1  0.07539000  0.00901000  0.14021000  1
  C  C791  1  0.01298000  0.69202000  0.19322000  1
  C  C792  1  0.45692000  0.90850000  0.74826000  1
  C  C793  1  0.89822000  0.80798000  0.30678000  1
  C  C794  1  0.30430000  0.43400000  0.89880000  1
  C  C795  1  0.05078000  0.31737000  0.14967000  1
  C  C796  1  0.94982000  0.94779000  0.24917000  1
  C  C797  1  0.69885000  0.69145000  0.49885000  1
  C  C798  1  0.60042000  0.84545000  0.59671000  1
  C  C799  1  0.14330000  0.43481000  0.05159000  1
  C  C800  1  0.87320000  0.66937000  0.32043000  1
  C  C801  1  0.86579000  0.97212000  0.32690000  1
  C  C802  1  0.27574000  0.80268000  0.91324000  1
  C  C803  1  0.56478000  0.80874000  0.62170000  1
  C  C804  1  0.04630000  0.22657000  0.13943000  1
  C  C805  1  0.68488000  0.73954000  0.49970000  1
  C  C806  1  0.23584000  0.20362000  0.94630000  1
  C  C807  1  0.72927000  0.49955000  0.45251000  1
  C  C808  1  0.27324000  0.71459000  0.90733000  1
  C  C809  1  0.76047000  0.41983000  0.41923000  1
  C  C810  1  0.50652000  0.73545000  0.66651000  1
  C  C811  1  0.16348000  0.92384000  0.00340000  1
  C  C812  1  0.58142000  0.54898000  0.58398000  1
  C  C813  1  0.19269000  0.17310000  0.97212000  1
  C  C814  1  0.58732000  0.00340000  0.57616000  1
  C  C815  1  0.13640000  0.40107000  0.02053000  1
  C  C816  1  0.73411000  0.38047000  0.42011000  1
  C  C817  1  0.70551000  0.45791000  0.44627000  1
  C  C818  1  0.69382000  0.91401000  0.45375000  1
  C  C819  1  0.19899000  0.25083000  0.94779000  1
  C  C820  1  0.55261000  0.96311000  0.59327000  1
  C  C821  1  0.07811000  0.05159000  0.06519000  1
  C  C822  1  0.51875000  0.55059000  0.62391000  1
  C  C823  1  0.00093000  0.63760000  0.13894000  1
  C  C824  1  0.77747000  0.86240000  0.36106000  1
  C  C825  1  0.80637000  0.82043000  0.33063000  1
  C  C826  1  0.03747000  0.02053000  0.09893000  1
  C  C827  1  0.88632000  0.40850000  0.24826000  1
  C  C828  1  0.24903000  0.47824000  0.88530000  1
  C  C829  1  0.66209000  0.67310000  0.47212000  1
  C  C830  1  0.48218000  0.81737000  0.64967000  1
  C  C831  1  0.54977000  0.62736000  0.58130000  1
  C  C832  1  0.95743000  0.67957000  0.16937000  1
  C  C833  1  0.00478000  0.30874000  0.12170000  1
  C  C834  1  0.45408000  0.77967000  0.67157000  1
  C  C835  1  0.00392000  0.26290000  0.11746000  1
  C  C836  1  0.88773000  0.97526000  0.23108000  1
  C  C837  1  0.47089000  0.59255000  0.64427000  1
  C  C838  1  0.20518000  0.75174000  0.90850000  1
  C  C839  1  0.63701000  0.76892000  0.47526000  1
  C  C840  1  0.80230000  0.99885000  0.30855000  1
  C  C841  1  0.11085000  0.19145000  0.99885000  1
  C  C842  1  0.14588000  0.90673000  0.96311000  1
  C  C843  1  0.06158000  0.58599000  0.04625000  1
  C  C844  1  0.48598000  0.63105000  0.62099000  1
  C  C845  1  0.81943000  0.40733000  0.28541000  1
  C  C846  1  0.79380000  0.69322000  0.30798000  1
  C  C847  1  0.65457000  0.38016000  0.44370000  1
  C  C848  1  0.62513000  0.45663000  0.47011000  1
  C  C849  1  0.87435000  0.17157000  0.22033000  1
  C  C850  1  0.11881000  0.26892000  0.97526000  1
  C  C851  1  0.63459000  0.21131000  0.45911000  1
  C  C852  1  0.40339000  0.59371000  0.68951000  1
  C  C853  1  0.82697000  0.16651000  0.26455000  1
  C  C854  1  0.16688000  0.49660000  0.92384000  1
  C  C855  1  0.05958000  0.16281000  0.02723000  1
  C  C856  1  0.62970000  0.06519000  0.44841000  1
  C  C857  1  0.81542000  0.99970000  0.26046000  1
  C  C858  1  0.98987000  0.58060000  0.08586000  1
  C  C859  1  0.07588000  0.23954000  0.99970000  1
  C  C860  1  0.58440000  0.14021000  0.49099000  1
  C  C861  1  0.68513000  0.87519000  0.38595000  1
  C  C862  1  0.65633000  0.91940000  0.41414000  1
  C  C863  1  0.65270000  0.24170000  0.41770000  1
  C  C864  1  0.59946000  0.41761000  0.46847000  1
  C  C865  1  0.14757000  0.04625000  0.91401000  1
  C  C866  1  0.61424000  0.70362000  0.44630000  1
  C  C867  1  0.94627000  0.62481000  0.11405000  1
  C  C868  1  0.72239000  0.02723000  0.33719000  1
  C  C869  1  0.60668000  0.17048000  0.44956000  1
  C  C870  1  0.95742000  0.34545000  0.09671000  1
  C  C871  1  0.92892000  0.88595000  0.12481000  1
  C  C872  1  0.86815000  0.14967000  0.18263000  1
  C  C873  1  0.60239000  0.75083000  0.44779000  1
  C  C874  1  0.77287000  0.13943000  0.27343000  1
  C  C875  1  0.19713000  0.90329000  0.84545000  1
  C  C876  1  0.86300000  0.83063000  0.17957000  1
  C  C877  1  0.55800000  0.09893000  0.47947000  1
  C  C878  1  0.25870000  0.58764000  0.76736000  1
  C  C879  1  0.74487000  0.40982000  0.27804000  1
  C  C880  1  0.10899000  0.53689000  0.90673000  1
  C  C881  1  0.20500000  0.19322000  0.80798000  1
  C  C882  1  0.33128000  0.58928000  0.68076000  1
  C  C883  1  0.92953000  0.91414000  0.08060000  1
  C  C884  1  0.81102000  0.41324000  0.19732000  1
  C  C885  1  0.81352000  0.12170000  0.19126000  1
  C  C886  1  0.76682000  0.11746000  0.23710000  1
  C  C887  1  0.13853000  0.13894000  0.86240000  1
  N  N888  1  0.90370000  0.42160000  0.07882000  1
  N  N889  1  0.36573000  0.93817000  0.59477000  1
  N  N890  1  0.84348000  0.10226000  0.11106000  1
  N  N891  1  0.04546000  0.61106000  0.89774000  1
  N  N892  1  0.11662000  0.58833000  0.79533000  1
  N  N893  1  0.28961000  0.96940000  0.61796000  1
  N  N894  1  0.82530000  0.07882000  0.07840000  1
  N  N895  1  0.96050000  0.90523000  0.93817000  1
  N  N896  1  0.79505000  0.20467000  0.08833000  1
  N  N897  1  0.90757000  0.88204000  0.96940000  1
  N  N898  1  0.80468000  0.95654000  0.05936000  1
  N  N899  1  0.44574000  0.11106000  0.39774000  1
  N  N900  1  0.40186000  0.41317000  0.43751000  1
  N  N901  1  0.40412000  0.07840000  0.42118000  1
  N  N902  1  0.86404000  0.44064000  0.95654000  1
  N  N903  1  0.73747000  0.99748000  0.06952000  1
  N  N904  1  0.26122000  0.05936000  0.54346000  1
  N  N905  1  0.80699000  0.43048000  0.99748000  1
  N  N906  1  0.89867000  0.56183000  0.90523000  1
  N  N907  1  0.49972000  0.08833000  0.29533000  1
  N  N908  1  0.19553000  0.49748000  0.56952000  1
  N  N909  1  0.87697000  0.53060000  0.88204000  1
  N  N910  1  0.16063000  0.93751000  0.58683000  1
  N  N911  1  0.17942000  0.45654000  0.55936000  1
  N  N912  1  0.23495000  0.06952000  0.50252000  1
  N  N913  1  0.24099000  0.38204000  0.46940000  1
  N  N914  1  0.74746000  0.91317000  0.93751000  1
  N  N915  1  0.19610000  0.40523000  0.43817000  1
  N  N916  1  0.68497000  0.56249000  0.91317000  1
  N  N917  1  0.01748000  0.57882000  0.57840000  1
  N  N918  1  0.94320000  0.60226000  0.61106000  1
  N  N919  1  0.91195000  0.70467000  0.58833000  1
  N  N920  1  0.08805000  0.29533000  0.41167000  1
  N  N921  1  0.05680000  0.39774000  0.38894000  1
  N  N922  1  0.98252000  0.42118000  0.42160000  1
  N  N923  1  0.31503000  0.43751000  0.08683000  1
  N  N924  1  0.80390000  0.59477000  0.56183000  1
  N  N925  1  0.25254000  0.08683000  0.06249000  1
  N  N926  1  0.75901000  0.61796000  0.53060000  1
  N  N927  1  0.76505000  0.93048000  0.49748000  1
  N  N928  1  0.82058000  0.54346000  0.44064000  1
  N  N929  1  0.83937000  0.06249000  0.41317000  1
  N  N930  1  0.12303000  0.46940000  0.11796000  1
  N  N931  1  0.80447000  0.50252000  0.43048000  1
  N  N932  1  0.50028000  0.91167000  0.70467000  1
  N  N933  1  0.10133000  0.43817000  0.09477000  1
  N  N934  1  0.19301000  0.56952000  0.00252000  1
  N  N935  1  0.73878000  0.94064000  0.45654000  1
  N  N936  1  0.26253000  0.00252000  0.93048000  1
  N  N937  1  0.13596000  0.55936000  0.04346000  1
  N  N938  1  0.59588000  0.92160000  0.57882000  1
  N  N939  1  0.59814000  0.58683000  0.56249000  1
  N  N940  1  0.55426000  0.88894000  0.60226000  1
  N  N941  1  0.19532000  0.04346000  0.94064000  1
  N  N942  1  0.09243000  0.11796000  0.03060000  1
  N  N943  1  0.20495000  0.79533000  0.91167000  1
  N  N944  1  0.03950000  0.09477000  0.06183000  1
  N  N945  1  0.17470000  0.92118000  0.92160000  1
  N  N946  1  0.71039000  0.03060000  0.38204000  1
  N  N947  1  0.88338000  0.41167000  0.20467000  1
  N  N948  1  0.95454000  0.38894000  0.10226000  1
  N  N949  1  0.15652000  0.89774000  0.88894000  1
  N  N950  1  0.63427000  0.06183000  0.40523000  1
  N  N951  1  0.09630000  0.57840000  0.92118000  1
  O  O952  1  0.91967000  0.33435000  0.07059000  1
  O  O953  1  0.66571000  0.04833000  0.31743000  1
  O  O954  1  0.01686000  0.81743000  0.95167000  1
  O  O955  1  0.83605000  0.98455000  0.11777000  1
  O  O956  1  0.07671000  0.52816000  0.87584000  1
  O  O957  1  0.08361000  0.84322000  0.85892000  1
  O  O958  1  0.95382000  0.38223000  0.98455000  1
  O  O959  1  0.89513000  0.12416000  0.02816000  1
  O  O960  1  0.75402000  0.07059000  0.16565000  1
  O  O961  1  0.57317000  0.14108000  0.34322000  1
  O  O962  1  0.51929000  0.02816000  0.37584000  1
  O  O963  1  0.33046000  0.37184000  0.53110000  1
  O  O964  1  0.31192000  0.95878000  0.53356000  1
  O  O965  1  0.32314000  0.46885000  0.51971000  1
  O  O966  1  0.75534000  0.39339000  0.08141000  1
  O  O967  1  0.32060000  0.11777000  0.51545000  1
  O  O968  1  0.84548000  0.96644000  0.95878000  1
  O  O969  1  0.76660000  0.87184000  0.03110000  1
  O  O970  1  0.96853000  0.54833000  0.81743000  1
  O  O971  1  0.94253000  0.64108000  0.84322000  1
  O  O972  1  0.80426000  0.54122000  0.96644000  1
  O  O973  1  0.16325000  0.58141000  0.60661000  1
  O  O974  1  0.13844000  0.03110000  0.62816000  1
  O  O975  1  0.64873000  0.08141000  0.10661000  1
  O  O976  1  0.32461000  0.16565000  0.42941000  1
  O  O977  1  0.68830000  0.96885000  0.01971000  1
  O  O978  1  0.15715000  0.01971000  0.53115000  1
  O  O979  1  0.22930000  0.46644000  0.45878000  1
  O  O980  1  0.06163000  0.48455000  0.61777000  1
  O  O981  1  0.70801000  0.48029000  0.96885000  1
  O  O982  1  0.00974000  0.57059000  0.66565000  1
  O  O983  1  0.79770000  0.46890000  0.87184000  1
  O  O984  1  0.21404000  0.31743000  0.45167000  1
  O  O985  1  0.23014000  0.10661000  0.41859000  1
  O  O986  1  0.21425000  0.34322000  0.35892000  1
  O  O987  1  0.04745000  0.37584000  0.47184000  1
  O  O988  1  0.95255000  0.62416000  0.52816000  1
  O  O989  1  0.78575000  0.65678000  0.64108000  1
  O  O990  1  0.76986000  0.89339000  0.58141000  1
  O  O991  1  0.78596000  0.68257000  0.54833000  1
  O  O992  1  0.20230000  0.53110000  0.12816000  1
  O  O993  1  0.99026000  0.42941000  0.33435000  1
  O  O994  1  0.29199000  0.51971000  0.03115000  1
  O  O995  1  0.93837000  0.51545000  0.38223000  1
  O  O996  1  0.77070000  0.53356000  0.54122000  1
  O  O997  1  0.84285000  0.98029000  0.46885000  1
  O  O998  1  0.31170000  0.03115000  0.98029000  1
  O  O999  1  0.67539000  0.83435000  0.57059000  1
  O  O1000  1  0.35127000  0.91859000  0.89339000  1
  O  O1001  1  0.86156000  0.96890000  0.37184000  1
  O  O1002  1  0.83675000  0.41859000  0.39339000  1
  O  O1003  1  0.19574000  0.45878000  0.03356000  1
  O  O1004  1  0.05747000  0.35892000  0.15678000  1
  O  O1005  1  0.03147000  0.45167000  0.18257000  1
  O  O1006  1  0.23340000  0.12816000  0.96890000  1
  O  O1007  1  0.15452000  0.03356000  0.04122000  1
  O  O1008  1  0.67940000  0.88223000  0.48455000  1
  O  O1009  1  0.24466000  0.60661000  0.91859000  1
  O  O1010  1  0.67686000  0.53115000  0.48029000  1
  O  O1011  1  0.68808000  0.04122000  0.46644000  1
  O  O1012  1  0.66954000  0.62816000  0.46890000  1
  O  O1013  1  0.48071000  0.97184000  0.62416000  1
  O  O1014  1  0.42683000  0.85892000  0.65678000  1
  O  O1015  1  0.24598000  0.92941000  0.83435000  1
  O  O1016  1  0.10487000  0.87584000  0.97184000  1
  O  O1017  1  0.04618000  0.61777000  0.01545000  1
  O  O1018  1  0.91639000  0.15678000  0.14108000  1
  O  O1019  1  0.92329000  0.47184000  0.12416000  1
  O  O1020  1  0.16395000  0.01545000  0.88223000  1
  O  O1021  1  0.98314000  0.18257000  0.04833000  1
  O  O1022  1  0.33429000  0.95167000  0.68257000  1
  O  O1023  1  0.08033000  0.66565000  0.92941000  1
