# generated using pymatgen
data_U2CoP2H4(CO3)4
_symmetry_space_group_name_H-M   'P 1'
_cell_length_a   9.35680000
_cell_length_b   9.50260000
_cell_length_c   12.12820000
_cell_angle_alpha   90.00000000
_cell_angle_beta   103.91200000
_cell_angle_gamma   90.00000000
_symmetry_Int_Tables_number   1
_chemical_formula_structural   U2CoP2H4(CO3)4
_chemical_formula_sum   'U4 Co2 P4 H8 C8 O24'
_cell_volume   1046.73327101
_cell_formula_units_Z   2
loop_
 _symmetry_equiv_pos_site_id
 _symmetry_equiv_pos_as_xyz
  1  'x, y, z'
loop_
 _atom_site_type_symbol
 _atom_site_label
 _atom_site_symmetry_multiplicity
 _atom_site_fract_x
 _atom_site_fract_y
 _atom_site_fract_z
 _atom_site_occupancy
  U  U0  1  0.21744000  0.32214000  0.61977000  1
  U  U1  1  0.28256000  0.82214000  0.88023000  1
  U  U2  1  0.71744000  0.17786000  0.11977000  1
  U  U3  1  0.78256000  0.67786000  0.38023000  1
  Co  Co4  1  0.00000000  0.00000000  0.00000000  1
  Co  Co5  1  0.50000000  0.50000000  0.50000000  1
  P  P6  1  0.09105000  0.68253000  0.61585000  1
  P  P7  1  0.40895000  0.18253000  0.88415000  1
  P  P8  1  0.59105000  0.81747000  0.11585000  1
  P  P9  1  0.90895000  0.31747000  0.38415000  1
  H  H10  1  0.14750000  0.84000000  0.48610000  1
  H  H11  1  0.20910000  0.30740000  0.91560000  1
  H  H12  1  0.29090000  0.80740000  0.58440000  1
  H  H13  1  0.35250000  0.34000000  0.01390000  1
  H  H14  1  0.64750000  0.66000000  0.98610000  1
  H  H15  1  0.70910000  0.19260000  0.41560000  1
  H  H16  1  0.79090000  0.69260000  0.08440000  1
  H  H17  1  0.85250000  0.16000000  0.51390000  1
  C  C18  1  0.16800000  0.96990000  0.62400000  1
  C  C19  1  0.18460000  0.83000000  0.56930000  1
  C  C20  1  0.31540000  0.33000000  0.93070000  1
  C  C21  1  0.33200000  0.46990000  0.87600000  1
  C  C22  1  0.66800000  0.53010000  0.12400000  1
  C  C23  1  0.68460000  0.67000000  0.06930000  1
  C  C24  1  0.81540000  0.17000000  0.43070000  1
  C  C25  1  0.83200000  0.03010000  0.37600000  1
  O  O26  1  0.07470000  0.30460000  0.43470000  1
  O  O27  1  0.12350000  0.68400000  0.74430000  1
  O  O28  1  0.12930000  0.84160000  0.94560000  1
  O  O29  1  0.15330000  0.97180000  0.72570000  1
  O  O30  1  0.15410000  0.55270000  0.56960000  1
  O  O31  1  0.17360000  0.07910000  0.56630000  1
  O  O32  1  0.32640000  0.57910000  0.93370000  1
  O  O33  1  0.34590000  0.05270000  0.93040000  1
  O  O34  1  0.34670000  0.47180000  0.77430000  1
  O  O35  1  0.37070000  0.34160000  0.55440000  1
  O  O36  1  0.37650000  0.18400000  0.75570000  1
  O  O37  1  0.42530000  0.80460000  0.06530000  1
  O  O38  1  0.57470000  0.19540000  0.93470000  1
  O  O39  1  0.62350000  0.81600000  0.24430000  1
  O  O40  1  0.62930000  0.65840000  0.44560000  1
  O  O41  1  0.65330000  0.52820000  0.22570000  1
  O  O42  1  0.65410000  0.94730000  0.06960000  1
  O  O43  1  0.67360000  0.42090000  0.06630000  1
  O  O44  1  0.82640000  0.92090000  0.43370000  1
  O  O45  1  0.84590000  0.44730000  0.43040000  1
  O  O46  1  0.84670000  0.02820000  0.27430000  1
  O  O47  1  0.87070000  0.15840000  0.05440000  1
  O  O48  1  0.87650000  0.31600000  0.25570000  1
  O  O49  1  0.92530000  0.69540000  0.56530000  1
