# generated using pymatgen
data_NiH14C24(NO2)4
_symmetry_space_group_name_H-M   'P 1'
_cell_length_a   7.36100000
_cell_length_b   15.64500000
_cell_length_c   26.95700000
_cell_angle_alpha   90.00000000
_cell_angle_beta   90.00000000
_cell_angle_gamma   90.00000000
_symmetry_Int_Tables_number   1
_chemical_formula_structural   NiH14C24(NO2)4
_chemical_formula_sum   'Ni4 H56 C96 N16 O32'
_cell_volume   3104.44481266
_cell_formula_units_Z   4
loop_
 _symmetry_equiv_pos_site_id
 _symmetry_equiv_pos_as_xyz
  1  'x, y, z'
loop_
 _atom_site_type_symbol
 _atom_site_label
 _atom_site_symmetry_multiplicity
 _atom_site_fract_x
 _atom_site_fract_y
 _atom_site_fract_z
 _atom_site_occupancy
  Ni  Ni0  1  0.01050000  0.34413000  0.18717000  1
  Ni  Ni1  1  0.48950000  0.65587000  0.68717000  1
  Ni  Ni2  1  0.51050000  0.15587000  0.81283000  1
  Ni  Ni3  1  0.98950000  0.84413000  0.31283000  1
  H  H4  1  0.03640000  0.88570000  0.66730000  1
  H  H5  1  0.05410000  0.49100000  0.25780000  1
  H  H6  1  0.06330000  0.69170000  0.81990000  1
  H  H7  1  0.07930000  0.23540000  0.27920000  1
  H  H8  1  0.08950000  0.61420000  0.67060000  1
  H  H9  1  0.10130000  0.93800000  0.16810000  1
  H  H10  1  0.13210000  0.01780000  0.80520000  1
  H  H11  1  0.19820000  0.99530000  0.09180000  1
  H  H12  1  0.22470000  0.41060000  0.03100000  1
  H  H13  1  0.22490000  0.03260000  0.42940000  1
  H  H14  1  0.23230000  0.41110000  0.78540000  1
  H  H15  1  0.23700000  0.78320000  0.64460000  1
  H  H16  1  0.23890000  0.87220000  0.80500000  1
  H  H17  1  0.24950000  0.08820000  0.50860000  1
  H  H18  1  0.25050000  0.91180000  0.00860000  1
  H  H19  1  0.26110000  0.12780000  0.30500000  1
  H  H20  1  0.26300000  0.21680000  0.14460000  1
  H  H21  1  0.26770000  0.58890000  0.28540000  1
  H  H22  1  0.27510000  0.96740000  0.92940000  1
  H  H23  1  0.27530000  0.58940000  0.53100000  1
  H  H24  1  0.30180000  0.00470000  0.59180000  1
  H  H25  1  0.36790000  0.98220000  0.30520000  1
  H  H26  1  0.39870000  0.06200000  0.66810000  1
  H  H27  1  0.41050000  0.38580000  0.17060000  1
  H  H28  1  0.42070000  0.76460000  0.77920000  1
  H  H29  1  0.43670000  0.30830000  0.31990000  1
  H  H30  1  0.44590000  0.50900000  0.75780000  1
  H  H31  1  0.46360000  0.11430000  0.16730000  1
  H  H32  1  0.53640000  0.61430000  0.33270000  1
  H  H33  1  0.55410000  0.00900000  0.74220000  1
  H  H34  1  0.56330000  0.80830000  0.18010000  1
  H  H35  1  0.57930000  0.26460000  0.72080000  1
  H  H36  1  0.58950000  0.88580000  0.32940000  1
  H  H37  1  0.60130000  0.56200000  0.83190000  1
  H  H38  1  0.63210000  0.48220000  0.19480000  1
  H  H39  1  0.69820000  0.50470000  0.90820000  1
  H  H40  1  0.72470000  0.08940000  0.96900000  1
  H  H41  1  0.72490000  0.46740000  0.57060000  1
  H  H42  1  0.73230000  0.08890000  0.21460000  1
  H  H43  1  0.73700000  0.71680000  0.35540000  1
  H  H44  1  0.73890000  0.62780000  0.19500000  1
  H  H45  1  0.74950000  0.41180000  0.49140000  1
  H  H46  1  0.75050000  0.58820000  0.99140000  1
  H  H47  1  0.76110000  0.37220000  0.69500000  1
  H  H48  1  0.76300000  0.28320000  0.85540000  1
  H  H49  1  0.76770000  0.91110000  0.71460000  1
  H  H50  1  0.77510000  0.53260000  0.07060000  1
  H  H51  1  0.77530000  0.91060000  0.46900000  1
  H  H52  1  0.80180000  0.49530000  0.40820000  1
  H  H53  1  0.86790000  0.51780000  0.69480000  1
  H  H54  1  0.89870000  0.43800000  0.33190000  1
  H  H55  1  0.91050000  0.11420000  0.82940000  1
  H  H56  1  0.92070000  0.73540000  0.22080000  1
  H  H57  1  0.93670000  0.19170000  0.68010000  1
  H  H58  1  0.94590000  0.99100000  0.24220000  1
  H  H59  1  0.96360000  0.38570000  0.83270000  1
  C  C60  1  0.00320000  0.41830000  0.10780000  1
  C  C61  1  0.00660000  0.96080000  0.44316000  1
  C  C62  1  0.01220000  0.15480000  0.66256000  1
  C  C63  1  0.01610000  0.01530000  0.79160000  1
  C  C64  1  0.02590000  0.03420000  0.53746000  1
  C  C65  1  0.02780000  0.45540000  0.74336000  1
  C  C66  1  0.04210000  0.62330000  0.88380000  1
  C  C67  1  0.06390000  0.06820000  0.58910000  1
  C  C68  1  0.10720000  0.89060000  0.73990000  1
  C  C69  1  0.11360000  0.86200000  0.69090000  1
  C  C70  1  0.11610000  0.48200000  0.97650000  1
  C  C71  1  0.11950000  0.57260000  0.69390000  1
  C  C72  1  0.12690000  0.44550000  0.02290000  1
  C  C73  1  0.14120000  0.01720000  0.45368000  1
  C  C74  1  0.15310000  0.05200000  0.50110000  1
  C  C75  1  0.15800000  0.21040000  0.25640000  1
  C  C76  1  0.17130000  0.48850000  0.24500000  1
  C  C77  1  0.17670000  0.13120000  0.68199000  1
  C  C78  1  0.20050000  0.45200000  0.76200000  1
  C  C79  1  0.21450000  0.92290000  0.15550000  1
  C  C80  1  0.22850000  0.04330000  0.60880000  1
  C  C81  1  0.23160000  0.85330000  0.77230000  1
  C  C82  1  0.23260000  0.79980000  0.67770000  1
  C  C83  1  0.23560000  0.16780000  0.73064000  1
  C  C84  1  0.26440000  0.83220000  0.23064000  1
  C  C85  1  0.26740000  0.20020000  0.17770000  1
  C  C86  1  0.26840000  0.14670000  0.27230000  1
  C  C87  1  0.27150000  0.95670000  0.10880000  1
  C  C88  1  0.28550000  0.07710000  0.65550000  1
  C  C89  1  0.29950000  0.54800000  0.26200000  1
  C  C90  1  0.32330000  0.86880000  0.18199000  1
  C  C91  1  0.32870000  0.51150000  0.74500000  1
  C  C92  1  0.34200000  0.78960000  0.75640000  1
  C  C93  1  0.34690000  0.94800000  0.00110000  1
  C  C94  1  0.35880000  0.98280000  0.95368000  1
  C  C95  1  0.37310000  0.55450000  0.52290000  1
  C  C96  1  0.38050000  0.42740000  0.19390000  1
  C  C97  1  0.38390000  0.51800000  0.47650000  1
  C  C98  1  0.38640000  0.13800000  0.19090000  1
  C  C99  1  0.39280000  0.10940000  0.23990000  1
  C  C100  1  0.43610000  0.93180000  0.08910000  1
  C  C101  1  0.45790000  0.37670000  0.38380000  1
  C  C102  1  0.47220000  0.54460000  0.24336000  1
  C  C103  1  0.47410000  0.96580000  0.03746000  1
  C  C104  1  0.48390000  0.98470000  0.29160000  1
  C  C105  1  0.48780000  0.84520000  0.16256000  1
  C  C106  1  0.49340000  0.03920000  0.94316000  1
  C  C107  1  0.49680000  0.58170000  0.60780000  1
  C  C108  1  0.50320000  0.08170000  0.89220000  1
  C  C109  1  0.50660000  0.53920000  0.55684000  1
  C  C110  1  0.51220000  0.34520000  0.33744000  1
  C  C111  1  0.51610000  0.48470000  0.20840000  1
  C  C112  1  0.52590000  0.46580000  0.46254000  1
  C  C113  1  0.52780000  0.04460000  0.25664000  1
  C  C114  1  0.54210000  0.87670000  0.11620000  1
  C  C115  1  0.56390000  0.43180000  0.41090000  1
  C  C116  1  0.60720000  0.60940000  0.26010000  1
  C  C117  1  0.61360000  0.63800000  0.30910000  1
  C  C118  1  0.61610000  0.01800000  0.02350000  1
  C  C119  1  0.61950000  0.92740000  0.30610000  1
  C  C120  1  0.62690000  0.05450000  0.97710000  1
  C  C121  1  0.64120000  0.48280000  0.54632000  1
  C  C122  1  0.65310000  0.44800000  0.49890000  1
  C  C123  1  0.65800000  0.28960000  0.74360000  1
  C  C124  1  0.67130000  0.01150000  0.75500000  1
  C  C125  1  0.67670000  0.36880000  0.31801000  1
  C  C126  1  0.70050000  0.04800000  0.23800000  1
  C  C127  1  0.71450000  0.57710000  0.84450000  1
  C  C128  1  0.72850000  0.45670000  0.39120000  1
  C  C129  1  0.73160000  0.64670000  0.22770000  1
  C  C130  1  0.73260000  0.70020000  0.32230000  1
  C  C131  1  0.73560000  0.33220000  0.26936000  1
  C  C132  1  0.76440000  0.66780000  0.76936000  1
  C  C133  1  0.76740000  0.29980000  0.82230000  1
  C  C134  1  0.76840000  0.35330000  0.72770000  1
  C  C135  1  0.77150000  0.54330000  0.89120000  1
  C  C136  1  0.78550000  0.42290000  0.34450000  1
  C  C137  1  0.79950000  0.95200000  0.73800000  1
  C  C138  1  0.82330000  0.63120000  0.81801000  1
  C  C139  1  0.82870000  0.98850000  0.25500000  1
  C  C140  1  0.84200000  0.71040000  0.24360000  1
  C  C141  1  0.84690000  0.55200000  0.99890000  1
  C  C142  1  0.85880000  0.51720000  0.04632000  1
  C  C143  1  0.87310000  0.94550000  0.47710000  1
  C  C144  1  0.88050000  0.07260000  0.80610000  1
  C  C145  1  0.88390000  0.98200000  0.52350000  1
  C  C146  1  0.88640000  0.36200000  0.80910000  1
  C  C147  1  0.89280000  0.39060000  0.76010000  1
  C  C148  1  0.93610000  0.56820000  0.91090000  1
  C  C149  1  0.95790000  0.12330000  0.61620000  1
  C  C150  1  0.97220000  0.95540000  0.75664000  1
  C  C151  1  0.97410000  0.53420000  0.96254000  1
  C  C152  1  0.98390000  0.51530000  0.70840000  1
  C  C153  1  0.98780000  0.65480000  0.83744000  1
  C  C154  1  0.99340000  0.46080000  0.05684000  1
  C  C155  1  0.99680000  0.91830000  0.39220000  1
  N  N156  1  0.15600000  0.23910000  0.20996000  1
  N  N157  1  0.20930000  0.42840000  0.21141000  1
  N  N158  1  0.21550000  0.65600000  0.90340000  1
  N  N159  1  0.24130000  0.54010000  0.44040000  1
  N  N160  1  0.25870000  0.45990000  0.94040000  1
  N  N161  1  0.28450000  0.34400000  0.40340000  1
  N  N162  1  0.29070000  0.57160000  0.71141000  1
  N  N163  1  0.34400000  0.76090000  0.70996000  1
  N  N164  1  0.65600000  0.26090000  0.79004000  1
  N  N165  1  0.70930000  0.07160000  0.78859000  1
  N  N166  1  0.71550000  0.84400000  0.09660000  1
  N  N167  1  0.74130000  0.95990000  0.55960000  1
  N  N168  1  0.75870000  0.04010000  0.05960000  1
  N  N169  1  0.78450000  0.15600000  0.59660000  1
  N  N170  1  0.79070000  0.92840000  0.28859000  1
  N  N171  1  0.84400000  0.73910000  0.29004000  1
  O  O172  1  0.08690000  0.55710000  0.45820000  1
  O  O173  1  0.10140000  0.94380000  0.35791000  1
  O  O174  1  0.11130000  0.35700000  0.11404000  1
  O  O175  1  0.12100000  0.86430000  0.24808000  1
  O  O176  1  0.14370000  0.22280000  0.75000000  1
  O  O177  1  0.17490000  0.31870000  0.37220000  1
  O  O178  1  0.21940000  0.45320000  0.89648000  1
  O  O179  1  0.23430000  0.35690000  0.44380000  1
  O  O180  1  0.26570000  0.64310000  0.94380000  1
  O  O181  1  0.28060000  0.54680000  0.39648000  1
  O  O182  1  0.32510000  0.68130000  0.87220000  1
  O  O183  1  0.35630000  0.77720000  0.25000000  1
  O  O184  1  0.37900000  0.13570000  0.74808000  1
  O  O185  1  0.38870000  0.64300000  0.61404000  1
  O  O186  1  0.39860000  0.05620000  0.85791000  1
  O  O187  1  0.41310000  0.44290000  0.95820000  1
  O  O188  1  0.58690000  0.94290000  0.54180000  1
  O  O189  1  0.60140000  0.55620000  0.64209000  1
  O  O190  1  0.61130000  0.14300000  0.88596000  1
  O  O191  1  0.62100000  0.63570000  0.75192000  1
  O  O192  1  0.64370000  0.27720000  0.25000000  1
  O  O193  1  0.67490000  0.18130000  0.62780000  1
  O  O194  1  0.71940000  0.04680000  0.10352000  1
  O  O195  1  0.73430000  0.14310000  0.55620000  1
  O  O196  1  0.76570000  0.85690000  0.05620000  1
  O  O197  1  0.78060000  0.95320000  0.60352000  1
  O  O198  1  0.82510000  0.81870000  0.12780000  1
  O  O199  1  0.85630000  0.72280000  0.75000000  1
  O  O200  1  0.87900000  0.36430000  0.25192000  1
  O  O201  1  0.88870000  0.85700000  0.38596000  1
  O  O202  1  0.89860000  0.44380000  0.14209000  1
  O  O203  1  0.91310000  0.05710000  0.04180000  1
