# generated using pymatgen
data_MnN9
_symmetry_space_group_name_H-M   'P 1'
_cell_length_a   8.42580000
_cell_length_b   9.27100000
_cell_length_c   12.82400000
_cell_angle_alpha   90.00000000
_cell_angle_beta   105.76000000
_cell_angle_gamma   90.00000000
_symmetry_Int_Tables_number   1
_chemical_formula_structural   MnN9
_chemical_formula_sum   'Mn4 N36'
_cell_volume   964.09624598
_cell_formula_units_Z   4
loop_
 _symmetry_equiv_pos_site_id
 _symmetry_equiv_pos_as_xyz
  1  'x, y, z'
loop_
 _atom_site_type_symbol
 _atom_site_label
 _atom_site_symmetry_multiplicity
 _atom_site_fract_x
 _atom_site_fract_y
 _atom_site_fract_z
 _atom_site_occupancy
  Mn  Mn0  1  0.25702000  0.74841000  0.01078000  1
  Mn  Mn1  1  0.25702000  0.75159000  0.51078000  1
  Mn  Mn2  1  0.74298000  0.24841000  0.48922000  1
  Mn  Mn3  1  0.74298000  0.25159000  0.98922000  1
  N  N4  1  0.00000000  0.00000000  0.00000000  1
  N  N5  1  0.00000000  0.00000000  0.50000000  1
  N  N6  1  0.00000000  0.50000000  0.00000000  1
  N  N7  1  0.00000000  0.50000000  0.50000000  1
  N  N8  1  0.04300000  0.61974000  0.01824000  1
  N  N9  1  0.04300000  0.88026000  0.51824000  1
  N  N10  1  0.10732000  0.55357000  0.47211000  1
  N  N11  1  0.10732000  0.94643000  0.97211000  1
  N  N12  1  0.21348000  0.69322000  0.83612000  1
  N  N13  1  0.21348000  0.80678000  0.33612000  1
  N  N14  1  0.26937000  0.69990000  0.76239000  1
  N  N15  1  0.26937000  0.80010000  0.26239000  1
  N  N16  1  0.32562000  0.70257000  0.68860000  1
  N  N17  1  0.32562000  0.79743000  0.18860000  1
  N  N18  1  0.42938000  0.55915000  0.05486000  1
  N  N19  1  0.42938000  0.94085000  0.55486000  1
  N  N20  1  0.48162000  0.62469000  0.50742000  1
  N  N21  1  0.48162000  0.87531000  0.00742000  1
  N  N22  1  0.50000000  0.00000000  0.00000000  1
  N  N23  1  0.50000000  0.00000000  0.50000000  1
  N  N24  1  0.50000000  0.50000000  0.00000000  1
  N  N25  1  0.50000000  0.50000000  0.50000000  1
  N  N26  1  0.51838000  0.12469000  0.99258000  1
  N  N27  1  0.51838000  0.37531000  0.49258000  1
  N  N28  1  0.57062000  0.05915000  0.44514000  1
  N  N29  1  0.57062000  0.44085000  0.94514000  1
  N  N30  1  0.67438000  0.20257000  0.81140000  1
  N  N31  1  0.67438000  0.29743000  0.31140000  1
  N  N32  1  0.73063000  0.19990000  0.73761000  1
  N  N33  1  0.73063000  0.30010000  0.23761000  1
  N  N34  1  0.78652000  0.19322000  0.66388000  1
  N  N35  1  0.78652000  0.30678000  0.16388000  1
  N  N36  1  0.89268000  0.05357000  0.02789000  1
  N  N37  1  0.89268000  0.44643000  0.52789000  1
  N  N38  1  0.95700000  0.11974000  0.48176000  1
  N  N39  1  0.95700000  0.38026000  0.98176000  1
