# generated using pymatgen
data_MnFe(CN)6
_symmetry_space_group_name_H-M   'P 1'
_cell_length_a   8.53100000
_cell_length_b   13.37600000
_cell_length_c   13.63100000
_cell_angle_alpha   90.00000000
_cell_angle_beta   90.00000000
_cell_angle_gamma   90.00000000
_symmetry_Int_Tables_number   1
_chemical_formula_structural   MnFe(CN)6
_chemical_formula_sum   'Mn4 Fe4 C24 N24'
_cell_volume   1555.44235194
_cell_formula_units_Z   4
loop_
 _symmetry_equiv_pos_site_id
 _symmetry_equiv_pos_as_xyz
  1  'x, y, z'
loop_
 _atom_site_type_symbol
 _atom_site_label
 _atom_site_symmetry_multiplicity
 _atom_site_fract_x
 _atom_site_fract_y
 _atom_site_fract_z
 _atom_site_occupancy
  Mn  Mn0  1  0.18499000  0.25000000  0.22460000  1
  Mn  Mn1  1  0.31501000  0.25000000  0.72460000  1
  Mn  Mn2  1  0.68499000  0.75000000  0.27540000  1
  Mn  Mn3  1  0.81501000  0.75000000  0.77540000  1
  Fe  Fe4  1  0.00000000  0.00000000  0.50000000  1
  Fe  Fe5  1  0.00000000  0.50000000  0.50000000  1
  Fe  Fe6  1  0.50000000  0.00000000  0.00000000  1
  Fe  Fe7  1  0.50000000  0.50000000  0.00000000  1
  C  C8  1  0.05090000  0.08541000  0.38956000  1
  C  C9  1  0.05090000  0.41459000  0.38956000  1
  C  C10  1  0.12670000  0.08447000  0.58454000  1
  C  C11  1  0.12670000  0.41553000  0.58454000  1
  C  C12  1  0.18640000  0.57543000  0.46933000  1
  C  C13  1  0.18640000  0.92457000  0.46933000  1
  C  C14  1  0.31360000  0.57543000  0.96933000  1
  C  C15  1  0.31360000  0.92457000  0.96933000  1
  C  C16  1  0.37330000  0.08447000  0.08454000  1
  C  C17  1  0.37330000  0.41553000  0.08454000  1
  C  C18  1  0.44910000  0.08541000  0.88956000  1
  C  C19  1  0.44910000  0.41459000  0.88956000  1
  C  C20  1  0.55090000  0.58541000  0.11044000  1
  C  C21  1  0.55090000  0.91459000  0.11044000  1
  C  C22  1  0.62670000  0.58447000  0.91546000  1
  C  C23  1  0.62670000  0.91553000  0.91546000  1
  C  C24  1  0.68640000  0.07543000  0.03067000  1
  C  C25  1  0.68640000  0.42457000  0.03067000  1
  C  C26  1  0.81360000  0.07543000  0.53067000  1
  C  C27  1  0.81360000  0.42457000  0.53067000  1
  C  C28  1  0.87330000  0.58447000  0.41546000  1
  C  C29  1  0.87330000  0.91553000  0.41546000  1
  C  C30  1  0.94910000  0.58541000  0.61044000  1
  C  C31  1  0.94910000  0.91459000  0.61044000  1
  N  N32  1  0.08540000  0.13591000  0.32563000  1
  N  N33  1  0.08540000  0.36409000  0.32563000  1
  N  N34  1  0.20160000  0.13409000  0.63449000  1
  N  N35  1  0.20160000  0.36591000  0.63449000  1
  N  N36  1  0.20270000  0.61793000  0.95077000  1
  N  N37  1  0.20270000  0.88207000  0.95077000  1
  N  N38  1  0.29730000  0.61793000  0.45077000  1
  N  N39  1  0.29730000  0.88207000  0.45077000  1
  N  N40  1  0.29840000  0.13409000  0.13449000  1
  N  N41  1  0.29840000  0.36591000  0.13449000  1
  N  N42  1  0.41460000  0.13591000  0.82563000  1
  N  N43  1  0.41460000  0.36409000  0.82563000  1
  N  N44  1  0.58540000  0.63591000  0.17437000  1
  N  N45  1  0.58540000  0.86409000  0.17437000  1
  N  N46  1  0.70160000  0.63409000  0.86551000  1
  N  N47  1  0.70160000  0.86591000  0.86551000  1
  N  N48  1  0.70270000  0.11793000  0.54923000  1
  N  N49  1  0.70270000  0.38207000  0.54923000  1
  N  N50  1  0.79730000  0.11793000  0.04923000  1
  N  N51  1  0.79730000  0.38207000  0.04923000  1
  N  N52  1  0.79840000  0.63409000  0.36551000  1
  N  N53  1  0.79840000  0.86591000  0.36551000  1
  N  N54  1  0.91460000  0.63591000  0.67437000  1
  N  N55  1  0.91460000  0.86409000  0.67437000  1
