# generated using pymatgen
data_CdH14C22N3O2
_symmetry_space_group_name_H-M   'P 1'
_cell_length_a   11.39200000
_cell_length_b   15.56840000
_cell_length_c   17.66850000
_cell_angle_alpha   82.41520000
_cell_angle_beta   71.19300000
_cell_angle_gamma   68.53890000
_symmetry_Int_Tables_number   1
_chemical_formula_structural   CdH14C22N3O2
_chemical_formula_sum   'Cd4 H56 C88 N12 O8'
_cell_volume   2760.28176256
_cell_formula_units_Z   4
loop_
 _symmetry_equiv_pos_site_id
 _symmetry_equiv_pos_as_xyz
  1  'x, y, z'
loop_
 _atom_site_type_symbol
 _atom_site_label
 _atom_site_symmetry_multiplicity
 _atom_site_fract_x
 _atom_site_fract_y
 _atom_site_fract_z
 _atom_site_occupancy
  Cd  Cd0  1  0.15041000  0.08587000  0.54435000  1
  Cd  Cd1  1  0.21937000  0.58587000  0.04435000  1
  Cd  Cd2  1  0.78063000  0.41413000  0.95565000  1
  Cd  Cd3  1  0.84959000  0.91413000  0.45565000  1
  H  H4  1  0.02110000  0.66560000  0.21280000  1
  H  H5  1  0.04330000  0.44690000  0.11310000  1
  H  H6  1  0.10050000  0.16560000  0.71280000  1
  H  H7  1  0.10210000  0.28630000  0.12130000  1
  H  H8  1  0.10470000  0.11920000  0.96760000  1
  H  H9  1  0.12070000  0.88890000  0.54230000  1
  H  H10  1  0.15540000  0.55490000  0.79710000  1
  H  H11  1  0.15810000  0.45350000  0.94870000  1
  H  H12  1  0.18060000  0.32780000  0.69520000  1
  H  H13  1  0.19150000  0.38080000  0.53240000  1
  H  H14  1  0.20360000  0.17220000  0.80480000  1
  H  H15  1  0.22740000  0.74290000  0.48890000  1
  H  H16  1  0.24520000  0.31110000  0.88970000  1
  H  H17  1  0.26690000  0.16560000  0.16200000  1
  H  H18  1  0.27630000  0.50130000  0.49870000  1
  H  H19  1  0.27630000  0.99870000  0.00130000  1
  H  H20  1  0.31670000  0.56530000  0.68190000  1
  H  H21  1  0.34070000  0.60660000  0.45320000  1
  H  H22  1  0.39670000  0.94690000  0.61310000  1
  H  H23  1  0.40050000  0.89340000  0.04680000  1
  H  H24  1  0.40550000  0.66560000  0.66200000  1
  H  H25  1  0.43610000  0.06530000  0.18190000  1
  H  H26  1  0.43970000  0.95350000  0.44870000  1
  H  H27  1  0.44600000  0.18890000  0.61030000  1
  H  H28  1  0.44810000  0.38890000  0.04230000  1
  H  H29  1  0.45920000  0.75710000  0.01110000  1
  H  H30  1  0.49030000  0.78630000  0.62130000  1
  H  H31  1  0.49260000  0.05490000  0.29710000  1
  H  H32  1  0.50740000  0.94510000  0.70290000  1
  H  H33  1  0.50970000  0.21370000  0.37870000  1
  H  H34  1  0.54080000  0.24290000  0.98890000  1
  H  H35  1  0.55190000  0.61110000  0.95770000  1
  H  H36  1  0.55400000  0.81110000  0.38970000  1
  H  H37  1  0.56030000  0.04650000  0.55130000  1
  H  H38  1  0.56390000  0.93470000  0.81810000  1
  H  H39  1  0.59450000  0.33440000  0.33800000  1
  H  H40  1  0.59950000  0.10660000  0.95320000  1
  H  H41  1  0.60330000  0.05310000  0.38690000  1
  H  H42  1  0.65930000  0.39340000  0.54680000  1
  H  H43  1  0.68330000  0.43470000  0.31810000  1
  H  H44  1  0.72370000  0.00130000  0.99870000  1
  H  H45  1  0.72370000  0.49870000  0.50130000  1
  H  H46  1  0.73310000  0.83440000  0.83800000  1
  H  H47  1  0.75480000  0.68890000  0.11030000  1
  H  H48  1  0.77260000  0.25710000  0.51110000  1
  H  H49  1  0.79640000  0.82780000  0.19520000  1
  H  H50  1  0.80850000  0.61920000  0.46760000  1
  H  H51  1  0.81940000  0.67220000  0.30480000  1
  H  H52  1  0.84190000  0.54650000  0.05130000  1
  H  H53  1  0.84460000  0.44510000  0.20290000  1
  H  H54  1  0.87930000  0.11110000  0.45770000  1
  H  H55  1  0.89530000  0.88080000  0.03240000  1
  H  H56  1  0.89790000  0.71370000  0.87870000  1
  H  H57  1  0.89950000  0.83440000  0.28720000  1
  H  H58  1  0.95670000  0.55310000  0.88690000  1
  H  H59  1  0.97890000  0.33440000  0.78720000  1
  C  C60  1  0.00390000  0.50600000  0.84820000  1
  C  C61  1  0.01710000  0.37840000  0.79020000  1
  C  C62  1  0.01870000  0.70780000  0.98440000  1
  C  C63  1  0.08690000  0.21280000  0.04080000  1
  C  C64  1  0.12250000  0.50780000  0.79420000  1
  C  C65  1  0.13600000  0.22720000  0.09780000  1
  C  C66  1  0.13670000  0.37470000  0.73430000  1
  C  C67  1  0.13880000  0.12910000  0.00690000  1
  C  C68  1  0.18570000  0.12160000  0.70980000  1
  C  C69  1  0.19240000  0.44120000  0.73640000  1
  C  C70  1  0.21070000  0.87250000  0.51110000  1
  C  C71  1  0.23600000  0.15510000  0.12130000  1
  C  C72  1  0.23770000  0.41050000  0.95670000  1
  C  C73  1  0.24080000  0.05630000  0.02730000  1
  C  C74  1  0.24570000  0.12530000  0.76570000  1
  C  C75  1  0.27350000  0.78510000  0.47930000  1
  C  C76  1  0.27480000  0.37090000  0.49310000  1
  C  C77  1  0.28880000  0.32490000  0.92170000  1
  C  C78  1  0.28910000  0.20780000  0.48440000  1
  C  C79  1  0.28990000  0.06970000  0.08650000  1
  C  C80  1  0.32440000  0.44370000  0.47270000  1
  C  C81  1  0.32590000  0.43190000  0.68050000  1
  C  C82  1  0.34050000  0.28720000  0.45920000  1
  C  C83  1  0.35810000  0.99400000  0.65180000  1
  C  C84  1  0.37000000  0.05880000  0.76360000  1
  C  C85  1  0.37180000  0.50590000  0.66050000  1
  C  C86  1  0.39510000  0.91050000  0.45670000  1
  C  C87  1  0.40020000  0.99330000  0.10950000  1
  C  C88  1  0.40190000  0.25960000  0.93300000  1
  C  C89  1  0.40550000  0.75960000  0.43300000  1
  C  C90  1  0.40570000  0.37250000  0.01110000  1
  C  C91  1  0.42450000  0.99220000  0.70580000  1
  C  C92  1  0.42860000  0.59460000  0.41920000  1
  C  C93  1  0.43830000  0.06810000  0.81950000  1
  C  C94  1  0.44240000  0.90540000  0.08080000  1
  C  C95  1  0.44610000  0.43030000  0.41350000  1
  C  C96  1  0.45580000  0.16560000  0.89940000  1
  C  C97  1  0.46100000  0.27280000  0.40220000  1
  C  C98  1  0.46180000  0.00590000  0.16050000  1
  C  C99  1  0.46210000  0.28510000  0.97930000  1
  C  C100  1  0.46460000  0.82490000  0.42170000  1
  C  C101  1  0.47920000  0.66560000  0.39940000  1
  C  C102  1  0.48760000  0.65510000  0.62130000  1
  C  C103  1  0.49700000  0.49330000  0.60950000  1
  C  C104  1  0.50300000  0.50670000  0.39050000  1
  C  C105  1  0.51240000  0.34490000  0.37870000  1
  C  C106  1  0.52080000  0.33440000  0.60060000  1
  C  C107  1  0.53540000  0.17510000  0.57830000  1
  C  C108  1  0.53790000  0.71490000  0.02070000  1
  C  C109  1  0.53820000  0.99410000  0.83950000  1
  C  C110  1  0.53900000  0.72720000  0.59780000  1
  C  C111  1  0.54420000  0.83440000  0.10060000  1
  C  C112  1  0.55390000  0.56970000  0.58650000  1
  C  C113  1  0.55760000  0.09460000  0.91920000  1
  C  C114  1  0.56170000  0.93190000  0.18050000  1
  C  C115  1  0.57140000  0.40540000  0.58080000  1
  C  C116  1  0.57550000  0.00780000  0.29420000  1
  C  C117  1  0.59430000  0.62750000  0.98890000  1
  C  C118  1  0.59450000  0.24040000  0.56700000  1
  C  C119  1  0.59810000  0.74040000  0.06700000  1
  C  C120  1  0.59980000  0.00670000  0.89050000  1
  C  C121  1  0.60490000  0.08950000  0.54330000  1
  C  C122  1  0.62820000  0.49410000  0.33950000  1
  C  C123  1  0.63000000  0.94120000  0.23640000  1
  C  C124  1  0.64190000  0.00600000  0.34820000  1
  C  C125  1  0.65950000  0.71280000  0.54080000  1
  C  C126  1  0.67410000  0.56810000  0.31950000  1
  C  C127  1  0.67560000  0.55630000  0.52730000  1
  C  C128  1  0.71010000  0.93030000  0.91350000  1
  C  C129  1  0.71090000  0.79220000  0.51560000  1
  C  C130  1  0.71120000  0.67510000  0.07830000  1
  C  C131  1  0.72520000  0.62910000  0.50690000  1
  C  C132  1  0.72650000  0.21490000  0.52070000  1
  C  C133  1  0.75430000  0.87470000  0.23430000  1
  C  C134  1  0.75920000  0.94370000  0.97270000  1
  C  C135  1  0.76230000  0.58950000  0.04330000  1
  C  C136  1  0.76400000  0.84490000  0.87870000  1
  C  C137  1  0.78930000  0.12750000  0.48890000  1
  C  C138  1  0.80760000  0.55880000  0.26360000  1
  C  C139  1  0.81430000  0.87840000  0.29020000  1
  C  C140  1  0.86120000  0.87090000  0.99310000  1
  C  C141  1  0.86330000  0.62530000  0.26570000  1
  C  C142  1  0.86400000  0.77280000  0.90220000  1
  C  C143  1  0.87750000  0.49220000  0.20580000  1
  C  C144  1  0.91310000  0.78720000  0.95920000  1
  C  C145  1  0.98130000  0.29220000  0.01560000  1
  C  C146  1  0.98290000  0.62160000  0.20980000  1
  C  C147  1  0.99610000  0.49400000  0.15180000  1
  N  N148  1  0.04680000  0.55870000  0.15170000  1
  N  N149  1  0.24280000  0.05870000  0.65170000  1
  N  N150  1  0.27030000  0.93550000  0.50030000  1
  N  N151  1  0.29390000  0.43550000  0.00030000  1
  N  N152  1  0.39740000  0.15300000  0.84940000  1
  N  N153  1  0.39980000  0.34700000  0.65060000  1
  N  N154  1  0.60020000  0.65300000  0.34940000  1
  N  N155  1  0.60260000  0.84700000  0.15060000  1
  N  N156  1  0.70610000  0.56450000  0.99970000  1
  N  N157  1  0.72970000  0.06450000  0.49970000  1
  N  N158  1  0.75720000  0.94130000  0.34830000  1
  N  N159  1  0.95320000  0.44130000  0.84830000  1
  O  O160  1  0.05030000  0.62830000  0.96350000  1
  O  O161  1  0.07190000  0.73000000  0.02980000  1
  O  O162  1  0.16830000  0.23000000  0.52980000  1
  O  O163  1  0.35790000  0.12830000  0.46350000  1
  O  O164  1  0.64210000  0.87170000  0.53650000  1
  O  O165  1  0.83170000  0.77000000  0.47020000  1
  O  O166  1  0.92810000  0.27000000  0.97020000  1
  O  O167  1  0.94970000  0.37170000  0.03650000  1
