# generated using pymatgen
data_Ho2H14C21NO8
_symmetry_space_group_name_H-M   'P 1'
_cell_length_a   12.57290000
_cell_length_b   12.57290000
_cell_length_c   25.94400000
_cell_angle_alpha   90.00000000
_cell_angle_beta   90.00000000
_cell_angle_gamma   90.00000000
_symmetry_Int_Tables_number   1
_chemical_formula_structural   Ho2H14C21NO8
_chemical_formula_sum   'Ho8 H56 C84 N4 O32'
_cell_volume   4101.17081705
_cell_formula_units_Z   4
loop_
 _symmetry_equiv_pos_site_id
 _symmetry_equiv_pos_as_xyz
  1  'x, y, z'
loop_
 _atom_site_type_symbol
 _atom_site_label
 _atom_site_symmetry_multiplicity
 _atom_site_fract_x
 _atom_site_fract_y
 _atom_site_fract_z
 _atom_site_occupancy
  Ho  Ho0  1  0.04276000  0.14353000  0.55162000  1
  Ho  Ho1  1  0.14353000  0.95724000  0.44838000  1
  Ho  Ho2  1  0.35647000  0.45724000  0.05162000  1
  Ho  Ho3  1  0.45724000  0.64353000  0.94838000  1
  Ho  Ho4  1  0.54276000  0.35647000  0.94838000  1
  Ho  Ho5  1  0.64353000  0.54276000  0.05162000  1
  Ho  Ho6  1  0.85647000  0.04276000  0.44838000  1
  Ho  Ho7  1  0.95724000  0.85647000  0.55162000  1
  H  H8  1  0.00700000  0.20650000  0.13460000  1
  H  H9  1  0.02810000  0.86850000  0.95020000  1
  H  H10  1  0.03690000  0.15280000  0.81050000  1
  H  H11  1  0.03910000  0.16070000  0.44360000  1
  H  H12  1  0.03980000  0.15650000  0.72170000  1
  H  H13  1  0.10490000  0.22240000  0.99580000  1
  H  H14  1  0.10900000  0.67270000  0.09670000  1
  H  H15  1  0.13150000  0.02810000  0.04980000  1
  H  H16  1  0.15280000  0.96310000  0.18950000  1
  H  H17  1  0.15650000  0.96020000  0.27830000  1
  H  H18  1  0.16070000  0.96090000  0.55640000  1
  H  H19  1  0.17270000  0.60900000  0.59670000  1
  H  H20  1  0.20650000  0.99300000  0.86540000  1
  H  H21  1  0.22240000  0.89510000  0.00420000  1
  H  H22  1  0.27760000  0.39510000  0.49580000  1
  H  H23  1  0.29350000  0.49300000  0.63460000  1
  H  H24  1  0.32730000  0.10900000  0.90330000  1
  H  H25  1  0.33930000  0.46090000  0.94360000  1
  H  H26  1  0.34350000  0.46020000  0.22170000  1
  H  H27  1  0.34720000  0.46310000  0.31050000  1
  H  H28  1  0.36850000  0.52810000  0.45020000  1
  H  H29  1  0.39100000  0.17270000  0.40330000  1
  H  H30  1  0.39510000  0.72240000  0.50420000  1
  H  H31  1  0.46020000  0.65650000  0.77830000  1
  H  H32  1  0.46090000  0.66070000  0.05640000  1
  H  H33  1  0.46310000  0.65280000  0.68950000  1
  H  H34  1  0.47190000  0.36850000  0.54980000  1
  H  H35  1  0.49300000  0.70650000  0.36540000  1
  H  H36  1  0.50700000  0.29350000  0.36540000  1
  H  H37  1  0.52810000  0.63150000  0.54980000  1
  H  H38  1  0.53690000  0.34720000  0.68950000  1
  H  H39  1  0.53910000  0.33930000  0.05640000  1
  H  H40  1  0.53980000  0.34350000  0.77830000  1
  H  H41  1  0.60490000  0.27760000  0.50420000  1
  H  H42  1  0.60900000  0.82730000  0.40330000  1
  H  H43  1  0.63150000  0.47190000  0.45020000  1
  H  H44  1  0.65280000  0.53690000  0.31050000  1
  H  H45  1  0.65650000  0.53980000  0.22170000  1
  H  H46  1  0.66070000  0.53910000  0.94360000  1
  H  H47  1  0.67270000  0.89100000  0.90330000  1
  H  H48  1  0.70650000  0.50700000  0.63460000  1
  H  H49  1  0.72240000  0.60490000  0.49580000  1
  H  H50  1  0.77760000  0.10490000  0.00420000  1
  H  H51  1  0.79350000  0.00700000  0.86540000  1
  H  H52  1  0.82730000  0.39100000  0.59670000  1
  H  H53  1  0.83930000  0.03910000  0.55640000  1
  H  H54  1  0.84350000  0.03980000  0.27830000  1
  H  H55  1  0.84720000  0.03690000  0.18950000  1
  H  H56  1  0.86850000  0.97190000  0.04980000  1
  H  H57  1  0.89100000  0.32730000  0.09670000  1
  H  H58  1  0.89510000  0.77760000  0.99580000  1
  H  H59  1  0.96020000  0.84350000  0.72170000  1
  H  H60  1  0.96090000  0.83930000  0.44360000  1
  H  H61  1  0.96310000  0.84720000  0.81050000  1
  H  H62  1  0.97190000  0.13150000  0.95020000  1
  H  H63  1  0.99300000  0.79350000  0.13460000  1
  C  C64  1  0.00000000  0.00000000  0.17960000  1
  C  C65  1  0.00000000  0.00000000  0.28671000  1
  C  C66  1  0.00000000  0.00000000  0.34430000  1
  C  C67  1  0.00000000  0.00000000  0.65570000  1
  C  C68  1  0.00000000  0.00000000  0.71329000  1
  C  C69  1  0.00000000  0.00000000  0.82040000  1
  C  C70  1  0.02220000  0.09060000  0.79252000  1
  C  C71  1  0.02370000  0.09420000  0.73932000  1
  C  C72  1  0.04340000  0.12400000  0.94172000  1
  C  C73  1  0.04340000  0.81540000  0.11060000  1
  C  C74  1  0.05630000  0.92250000  0.09745000  1
  C  C75  1  0.07750000  0.05630000  0.90255000  1
  C  C76  1  0.09060000  0.97780000  0.20748000  1
  C  C77  1  0.09420000  0.97630000  0.26068000  1
  C  C78  1  0.11020000  0.74310000  0.08570000  1
  C  C79  1  0.12400000  0.95660000  0.05828000  1
  C  C80  1  0.12460000  0.18070000  0.96778000  1
  C  C81  1  0.17850000  0.76950000  0.04556000  1
  C  C82  1  0.18070000  0.87540000  0.03222000  1
  C  C83  1  0.18460000  0.04340000  0.88940000  1
  C  C84  1  0.19100000  0.74960000  0.52260000  1
  C  C85  1  0.23050000  0.17850000  0.95444000  1
  C  C86  1  0.24310000  0.61020000  0.58570000  1
  C  C87  1  0.24960000  0.69100000  0.02260000  1
  C  C88  1  0.25040000  0.19100000  0.47740000  1
  C  C89  1  0.25690000  0.11020000  0.91430000  1
  C  C90  1  0.26950000  0.67850000  0.54556000  1
  C  C91  1  0.30900000  0.24960000  0.97740000  1
  C  C92  1  0.31540000  0.54340000  0.61060000  1
  C  C93  1  0.31930000  0.37540000  0.46778000  1
  C  C94  1  0.32150000  0.26950000  0.45444000  1
  C  C95  1  0.37540000  0.68070000  0.53222000  1
  C  C96  1  0.37600000  0.45660000  0.44172000  1
  C  C97  1  0.38980000  0.24310000  0.41430000  1
  C  C98  1  0.40580000  0.47630000  0.23932000  1
  C  C99  1  0.40940000  0.47780000  0.29252000  1
  C  C100  1  0.42250000  0.55630000  0.59745000  1
  C  C101  1  0.44370000  0.42250000  0.40255000  1
  C  C102  1  0.45660000  0.31540000  0.38940000  1
  C  C103  1  0.45660000  0.62400000  0.55828000  1
  C  C104  1  0.47630000  0.59420000  0.76068000  1
  C  C105  1  0.47780000  0.59060000  0.70748000  1
  C  C106  1  0.50000000  0.50000000  0.15570000  1
  C  C107  1  0.50000000  0.50000000  0.21329000  1
  C  C108  1  0.50000000  0.50000000  0.32040000  1
  C  C109  1  0.50000000  0.50000000  0.67960000  1
  C  C110  1  0.50000000  0.50000000  0.78671000  1
  C  C111  1  0.50000000  0.50000000  0.84430000  1
  C  C112  1  0.52220000  0.40940000  0.70748000  1
  C  C113  1  0.52370000  0.40580000  0.76068000  1
  C  C114  1  0.54340000  0.37600000  0.55828000  1
  C  C115  1  0.54340000  0.68460000  0.38940000  1
  C  C116  1  0.55630000  0.57750000  0.40255000  1
  C  C117  1  0.57750000  0.44370000  0.59745000  1
  C  C118  1  0.59060000  0.52220000  0.29252000  1
  C  C119  1  0.59420000  0.52370000  0.23932000  1
  C  C120  1  0.61020000  0.75690000  0.41430000  1
  C  C121  1  0.62400000  0.54340000  0.44172000  1
  C  C122  1  0.62460000  0.31930000  0.53222000  1
  C  C123  1  0.67850000  0.73050000  0.45444000  1
  C  C124  1  0.68070000  0.62460000  0.46778000  1
  C  C125  1  0.68460000  0.45660000  0.61060000  1
  C  C126  1  0.69100000  0.75040000  0.97740000  1
  C  C127  1  0.73050000  0.32150000  0.54556000  1
  C  C128  1  0.74310000  0.88980000  0.91430000  1
  C  C129  1  0.74960000  0.80900000  0.47740000  1
  C  C130  1  0.75040000  0.30900000  0.02260000  1
  C  C131  1  0.75690000  0.38980000  0.58570000  1
  C  C132  1  0.76950000  0.82150000  0.95444000  1
  C  C133  1  0.80900000  0.25040000  0.52260000  1
  C  C134  1  0.81540000  0.95660000  0.88940000  1
  C  C135  1  0.81930000  0.12460000  0.03222000  1
  C  C136  1  0.82150000  0.23050000  0.04556000  1
  C  C137  1  0.87540000  0.81930000  0.96778000  1
  C  C138  1  0.87600000  0.04340000  0.05828000  1
  C  C139  1  0.88980000  0.25690000  0.08570000  1
  C  C140  1  0.90580000  0.02370000  0.26068000  1
  C  C141  1  0.90940000  0.02220000  0.20748000  1
  C  C142  1  0.92250000  0.94370000  0.90255000  1
  C  C143  1  0.94370000  0.07750000  0.09745000  1
  C  C144  1  0.95660000  0.18460000  0.11060000  1
  C  C145  1  0.95660000  0.87600000  0.94172000  1
  C  C146  1  0.97630000  0.90580000  0.73932000  1
  C  C147  1  0.97780000  0.90940000  0.79252000  1
  N  N148  1  0.00000000  0.00000000  0.12460000  1
  N  N149  1  0.00000000  0.00000000  0.87540000  1
  N  N150  1  0.50000000  0.50000000  0.37540000  1
  N  N151  1  0.50000000  0.50000000  0.62460000  1
  O  O152  1  0.00540000  0.91410000  0.63272000  1
  O  O153  1  0.02450000  0.10740000  0.46252000  1
  O  O154  1  0.08590000  0.00540000  0.36728000  1
  O  O155  1  0.09650000  0.74200000  0.53651000  1
  O  O156  1  0.10740000  0.97550000  0.53748000  1
  O  O157  1  0.18890000  0.22320000  0.51126000  1
  O  O158  1  0.22320000  0.81110000  0.48874000  1
  O  O159  1  0.24200000  0.59650000  0.03651000  1
  O  O160  1  0.25800000  0.09650000  0.46349000  1
  O  O161  1  0.27680000  0.31110000  0.01126000  1
  O  O162  1  0.31110000  0.72320000  0.98874000  1
  O  O163  1  0.39260000  0.47550000  0.96252000  1
  O  O164  1  0.40350000  0.24200000  0.96349000  1
  O  O165  1  0.41410000  0.50540000  0.13272000  1
  O  O166  1  0.47550000  0.60740000  0.03748000  1
  O  O167  1  0.49460000  0.41410000  0.86728000  1
  O  O168  1  0.50540000  0.58590000  0.86728000  1
  O  O169  1  0.52450000  0.39260000  0.03748000  1
  O  O170  1  0.58590000  0.49460000  0.13272000  1
  O  O171  1  0.59650000  0.75800000  0.96349000  1
  O  O172  1  0.60740000  0.52450000  0.96252000  1
  O  O173  1  0.68890000  0.27680000  0.98874000  1
  O  O174  1  0.72320000  0.68890000  0.01126000  1
  O  O175  1  0.74200000  0.90350000  0.46349000  1
  O  O176  1  0.75800000  0.40350000  0.03651000  1
  O  O177  1  0.77680000  0.18890000  0.48874000  1
  O  O178  1  0.81110000  0.77680000  0.51126000  1
  O  O179  1  0.89260000  0.02450000  0.53748000  1
  O  O180  1  0.90350000  0.25800000  0.53651000  1
  O  O181  1  0.91410000  0.99460000  0.36728000  1
  O  O182  1  0.97550000  0.89260000  0.46252000  1
  O  O183  1  0.99460000  0.08590000  0.63272000  1
