# generated using pymatgen
data_CuH5C10N3O4
_symmetry_space_group_name_H-M   'P 1'
_cell_length_a   10.33140000
_cell_length_b   12.31960000
_cell_length_c   19.04200000
_cell_angle_alpha   106.78500000
_cell_angle_beta   93.69400000
_cell_angle_gamma   94.28400000
_symmetry_Int_Tables_number   1
_chemical_formula_structural   CuH5C10N3O4
_chemical_formula_sum   'Cu8 H40 C80 N24 O32'
_cell_volume   2304.49252861
_cell_formula_units_Z   8
loop_
 _symmetry_equiv_pos_site_id
 _symmetry_equiv_pos_as_xyz
  1  'x, y, z'
loop_
 _atom_site_type_symbol
 _atom_site_label
 _atom_site_symmetry_multiplicity
 _atom_site_fract_x
 _atom_site_fract_y
 _atom_site_fract_z
 _atom_site_occupancy
  Cu  Cu0  1  0.10869000  0.47926000  0.22495000  1
  Cu  Cu1  1  0.11895000  0.16617000  0.96754000  1
  Cu  Cu2  1  0.34595000  0.54578000  0.28994000  1
  Cu  Cu3  1  0.41150000  0.79322000  0.60236000  1
  Cu  Cu4  1  0.58850000  0.20678000  0.39764000  1
  Cu  Cu5  1  0.65405000  0.45422000  0.71006000  1
  Cu  Cu6  1  0.88105000  0.83383000  0.03246000  1
  Cu  Cu7  1  0.89131000  0.52074000  0.77505000  1
  H  H8  1  0.03700000  0.28140000  0.57390000  1
  H  H9  1  0.05210000  0.20050000  0.71610000  1
  H  H10  1  0.05770000  0.62410000  0.60560000  1
  H  H11  1  0.06360000  0.13060000  0.31980000  1
  H  H12  1  0.08040000  0.89920000  0.86350000  1
  H  H13  1  0.14210000  0.11760000  0.13660000  1
  H  H14  1  0.19160000  0.52950000  0.00180000  1
  H  H15  1  0.19510000  0.52120000  0.71900000  1
  H  H16  1  0.23250000  0.19360000  0.60970000  1
  H  H17  1  0.25100000  0.14310000  0.77970000  1
  H  H18  1  0.26840000  0.79540000  0.82040000  1
  H  H19  1  0.31100000  0.44220000  0.48790000  1
  H  H20  1  0.32820000  0.91250000  0.33040000  1
  H  H21  1  0.39160000  0.53580000  0.80320000  1
  H  H22  1  0.41780000  0.91040000  0.06710000  1
  H  H23  1  0.43470000  0.24300000  0.69470000  1
  H  H24  1  0.44150000  0.03680000  0.74030000  1
  H  H25  1  0.47860000  0.35100000  0.86670000  1
  H  H26  1  0.48070000  0.76410000  0.81250000  1
  H  H27  1  0.49930000  0.33690000  0.07410000  1
  H  H28  1  0.50070000  0.66310000  0.92590000  1
  H  H29  1  0.51930000  0.23590000  0.18750000  1
  H  H30  1  0.52140000  0.64900000  0.13330000  1
  H  H31  1  0.55850000  0.96320000  0.25970000  1
  H  H32  1  0.56530000  0.75700000  0.30530000  1
  H  H33  1  0.58220000  0.08960000  0.93290000  1
  H  H34  1  0.60840000  0.46420000  0.19680000  1
  H  H35  1  0.67180000  0.08750000  0.66960000  1
  H  H36  1  0.68900000  0.55780000  0.51210000  1
  H  H37  1  0.73160000  0.20460000  0.17960000  1
  H  H38  1  0.74900000  0.85690000  0.22030000  1
  H  H39  1  0.76750000  0.80640000  0.39030000  1
  H  H40  1  0.80490000  0.47880000  0.28100000  1
  H  H41  1  0.80840000  0.47050000  0.99820000  1
  H  H42  1  0.85790000  0.88240000  0.86340000  1
  H  H43  1  0.91960000  0.10080000  0.13650000  1
  H  H44  1  0.93640000  0.86940000  0.68020000  1
  H  H45  1  0.94230000  0.37590000  0.39440000  1
  H  H46  1  0.94790000  0.79950000  0.28390000  1
  H  H47  1  0.96300000  0.71860000  0.42610000  1
  C  C48  1  0.00390000  0.37260000  0.43140000  1
  C  C49  1  0.01390000  0.03200000  0.69660000  1
  C  C50  1  0.01440000  0.85870000  0.29570000  1
  C  C51  1  0.03260000  0.67600000  0.51630000  1
  C  C52  1  0.06030000  0.31600000  0.53850000  1
  C  C53  1  0.08410000  0.05750000  0.31730000  1
  C  C54  1  0.13220000  0.41760000  0.43220000  1
  C  C55  1  0.14330000  0.83680000  0.30570000  1
  C  C56  1  0.15990000  0.90430000  0.05930000  1
  C  C57  1  0.16770000  0.92720000  0.87490000  1
  C  C58  1  0.17010000  0.46360000  0.37150000  1
  C  C59  1  0.17020000  0.72770000  0.51900000  1
  C  C60  1  0.17400000  0.71660000  0.29680000  1
  C  C61  1  0.18710000  0.36060000  0.53880000  1
  C  C62  1  0.19810000  0.53750000  0.77000000  1
  C  C63  1  0.21200000  0.03580000  0.32740000  1
  C  C64  1  0.22530000  0.41220000  0.48650000  1
  C  C65  1  0.22970000  0.10570000  0.13380000  1
  C  C66  1  0.24200000  0.92630000  0.32250000  1
  C  C67  1  0.25070000  0.07360000  0.74360000  1
  C  C68  1  0.26250000  0.00080000  0.09690000  1
  C  C69  1  0.27030000  0.86960000  0.85110000  1
  C  C70  1  0.27710000  0.56290000  0.00960000  1
  C  C71  1  0.28620000  0.31130000  0.20430000  1
  C  C72  1  0.29030000  0.25900000  0.62010000  1
  C  C73  1  0.29340000  0.55240000  0.14090000  1
  C  C74  1  0.30680000  0.54560000  0.81580000  1
  C  C75  1  0.31880000  0.13310000  0.34300000  1
  C  C76  1  0.32320000  0.19490000  0.16710000  1
  C  C77  1  0.32890000  0.28560000  0.95590000  1
  C  C78  1  0.33700000  0.59200000  0.95360000  1
  C  C79  1  0.34760000  0.58480000  0.07740000  1
  C  C80  1  0.35510000  0.01460000  0.72160000  1
  C  C81  1  0.39360000  0.98170000  0.09180000  1
  C  C82  1  0.40180000  0.28700000  0.66666667  1
  C  C83  1  0.45510000  0.17740000  0.16370000  1
  C  C84  1  0.46330000  0.64260000  0.96390000  1
  C  C85  1  0.46690000  0.33750000  0.96890000  1
  C  C86  1  0.47460000  0.63430000  0.08760000  1
  C  C87  1  0.48770000  0.07350000  0.12520000  1
  C  C88  1  0.51230000  0.92650000  0.87480000  1
  C  C89  1  0.52540000  0.36570000  0.91240000  1
  C  C90  1  0.53310000  0.66250000  0.03110000  1
  C  C91  1  0.53670000  0.35740000  0.03610000  1
  C  C92  1  0.54490000  0.82260000  0.83630000  1
  C  C93  1  0.59820000  0.71300000  0.33333333  1
  C  C94  1  0.60640000  0.01830000  0.90820000  1
  C  C95  1  0.64490000  0.98540000  0.27840000  1
  C  C96  1  0.65240000  0.41520000  0.92260000  1
  C  C97  1  0.66300000  0.40800000  0.04640000  1
  C  C98  1  0.67110000  0.71440000  0.04410000  1
  C  C99  1  0.67680000  0.80510000  0.83290000  1
  C  C100  1  0.68120000  0.86690000  0.65700000  1
  C  C101  1  0.69320000  0.45440000  0.18420000  1
  C  C102  1  0.70660000  0.44760000  0.85910000  1
  C  C103  1  0.70970000  0.74100000  0.37990000  1
  C  C104  1  0.71380000  0.68870000  0.79570000  1
  C  C105  1  0.72290000  0.43710000  0.99040000  1
  C  C106  1  0.72970000  0.13040000  0.14890000  1
  C  C107  1  0.73750000  0.99920000  0.90310000  1
  C  C108  1  0.74930000  0.92640000  0.25640000  1
  C  C109  1  0.75800000  0.07370000  0.67750000  1
  C  C110  1  0.77030000  0.89430000  0.86620000  1
  C  C111  1  0.77470000  0.58780000  0.51350000  1
  C  C112  1  0.78800000  0.96420000  0.67260000  1
  C  C113  1  0.80190000  0.46250000  0.23000000  1
  C  C114  1  0.81290000  0.63940000  0.46120000  1
  C  C115  1  0.82600000  0.28340000  0.70320000  1
  C  C116  1  0.82980000  0.27230000  0.48100000  1
  C  C117  1  0.82990000  0.53640000  0.62850000  1
  C  C118  1  0.83230000  0.07280000  0.12510000  1
  C  C119  1  0.84010000  0.09570000  0.94070000  1
  C  C120  1  0.85670000  0.16320000  0.69430000  1
  C  C121  1  0.86780000  0.58240000  0.56780000  1
  C  C122  1  0.91590000  0.94250000  0.68270000  1
  C  C123  1  0.93970000  0.68400000  0.46150000  1
  C  C124  1  0.96740000  0.32400000  0.48370000  1
  C  C125  1  0.98560000  0.14130000  0.70430000  1
  C  C126  1  0.98610000  0.96800000  0.30340000  1
  C  C127  1  0.99610000  0.62740000  0.56860000  1
  N  N128  1  0.09580000  0.55690000  0.81000000  1
  N  N129  1  0.13540000  0.57760000  0.87940000  1
  N  N130  1  0.14690000  0.00880000  0.70140000  1
  N  N131  1  0.18270000  0.91410000  0.65460000  1
  N  N132  1  0.21320000  0.03190000  0.91780000  1
  N  N133  1  0.26480000  0.57080000  0.88340000  1
  N  N134  1  0.28330000  0.34750000  0.59270000  1
  N  N135  1  0.31030000  0.91840000  0.66810000  1
  N  N136  1  0.34120000  0.04170000  0.92140000  1
  N  N137  1  0.37650000  0.94350000  0.88160000  1
  N  N138  1  0.38300000  0.42720000  0.62080000  1
  N  N139  1  0.45600000  0.38890000  0.66510000  1
  N  N140  1  0.54400000  0.61110000  0.33490000  1
  N  N141  1  0.61700000  0.57280000  0.37920000  1
  N  N142  1  0.62350000  0.05650000  0.11840000  1
  N  N143  1  0.65880000  0.95830000  0.07860000  1
  N  N144  1  0.68970000  0.08160000  0.33190000  1
  N  N145  1  0.71670000  0.65250000  0.40730000  1
  N  N146  1  0.73520000  0.42920000  0.11660000  1
  N  N147  1  0.78680000  0.96810000  0.08220000  1
  N  N148  1  0.81730000  0.08590000  0.34540000  1
  N  N149  1  0.85310000  0.99120000  0.29860000  1
  N  N150  1  0.86460000  0.42240000  0.12060000  1
  N  N151  1  0.90420000  0.44310000  0.19000000  1
  O  O152  1  0.04250000  0.92760000  0.07010000  1
  O  O153  1  0.08250000  0.45770000  0.32100000  1
  O  O154  1  0.08430000  0.63970000  0.26330000  1
  O  O155  1  0.16940000  0.32780000  0.19270000  1
  O  O156  1  0.17860000  0.50860000  0.13480000  1
  O  O157  1  0.19140000  0.81420000  0.02070000  1
  O  O158  1  0.19450000  0.79010000  0.48050000  1
  O  O159  1  0.25200000  0.70130000  0.56300000  1
  O  O160  1  0.26630000  0.26960000  0.89540000  1
  O  O161  1  0.28230000  0.25590000  0.00890000  1
  O  O162  1  0.28560000  0.70000000  0.31940000  1
  O  O163  1  0.28630000  0.50460000  0.37380000  1
  O  O164  1  0.29130000  0.22590000  0.34000000  1
  O  O165  1  0.37340000  0.57220000  0.19680000  1
  O  O166  1  0.37440000  0.38520000  0.24120000  1
  O  O167  1  0.43220000  0.10700000  0.35740000  1
  O  O168  1  0.56780000  0.89300000  0.64260000  1
  O  O169  1  0.62560000  0.61480000  0.75880000  1
  O  O170  1  0.62660000  0.42780000  0.80320000  1
  O  O171  1  0.70870000  0.77410000  0.66000000  1
  O  O172  1  0.71370000  0.49540000  0.62620000  1
  O  O173  1  0.71440000  0.30000000  0.68060000  1
  O  O174  1  0.71770000  0.74410000  0.99110000  1
  O  O175  1  0.73370000  0.73040000  0.10460000  1
  O  O176  1  0.74800000  0.29870000  0.43700000  1
  O  O177  1  0.80550000  0.20990000  0.51950000  1
  O  O178  1  0.80860000  0.18580000  0.97930000  1
  O  O179  1  0.82140000  0.49140000  0.86520000  1
  O  O180  1  0.83060000  0.67220000  0.80730000  1
  O  O181  1  0.91570000  0.36030000  0.73670000  1
  O  O182  1  0.91750000  0.54230000  0.67900000  1
  O  O183  1  0.95750000  0.07240000  0.92990000  1
