# generated using pymatgen
data_NiH28C36(NO3)2
_symmetry_space_group_name_H-M   'P 1'
_cell_length_a   13.98300000
_cell_length_b   23.77560000
_cell_length_c   23.77560000
_cell_angle_alpha   76.67630000
_cell_angle_beta   72.89880000
_cell_angle_gamma   72.89870000
_symmetry_Int_Tables_number   1
_chemical_formula_structural   NiH28C36(NO3)2
_chemical_formula_sum   'Ni8 H224 C288 N16 O48'
_cell_volume   7130.54961139
_cell_formula_units_Z   8
loop_
 _symmetry_equiv_pos_site_id
 _symmetry_equiv_pos_as_xyz
  1  'x, y, z'
loop_
 _atom_site_type_symbol
 _atom_site_label
 _atom_site_symmetry_multiplicity
 _atom_site_fract_x
 _atom_site_fract_y
 _atom_site_fract_z
 _atom_site_occupancy
  Ni  Ni0  1  0.18723000  0.64506000  0.24338000  1
  Ni  Ni1  1  0.30370000  0.82162000  0.56798000  1
  Ni  Ni2  1  0.30670000  0.56798000  0.82162000  1
  Ni  Ni3  1  0.42433000  0.14506000  0.74338000  1
  Ni  Ni4  1  0.68723000  0.74338000  0.14506000  1
  Ni  Ni5  1  0.80370000  0.06798000  0.32162000  1
  Ni  Ni6  1  0.80670000  0.32162000  0.06798000  1
  Ni  Ni7  1  0.92433000  0.24338000  0.64506000  1
  H  H8  1  0.00620000  0.02830000  0.12250000  1
  H  H9  1  0.00770000  0.24670000  0.84370000  1
  H  H10  1  0.00970000  0.88630000  0.42910000  1
  H  H11  1  0.01370000  0.60370000  0.51030000  1
  H  H12  1  0.01420000  0.66240000  0.36080000  1
  H  H13  1  0.01720000  0.38530000  0.21170000  1
  H  H14  1  0.02300000  0.51110000  0.19050000  1
  H  H15  1  0.03060000  0.92190000  0.75110000  1
  H  H16  1  0.04080000  0.92940000  0.17020000  1
  H  H17  1  0.04220000  0.04340000  0.34940000  1
  H  H18  1  0.04360000  0.77340000  0.20460000  1
  H  H19  1  0.04370000  0.39220000  0.82400000  1
  H  H20  1  0.04420000  0.35050000  0.04630000  1
  H  H21  1  0.04480000  0.50160000  0.59680000  1
  H  H22  1  0.05600000  0.11820000  0.54100000  1
  H  H23  1  0.05710000  0.10890000  0.47690000  1
  H  H24  1  0.05900000  0.85050000  0.54630000  1
  H  H25  1  0.06010000  0.88160000  0.25480000  1
  H  H26  1  0.06370000  0.78140000  0.88140000  1
  H  H27  1  0.06500000  0.54340000  0.84940000  1
  H  H28  1  0.07000000  0.39350000  0.29270000  1
  H  H29  1  0.07090000  0.32530000  0.91890000  1
  H  H30  1  0.07210000  0.14810000  0.69810000  1
  H  H31  1  0.08100000  0.99830000  0.46510000  1
  H  H32  1  0.08170000  0.69810000  0.14810000  1
  H  H33  1  0.08280000  0.27450000  0.88350000  1
  H  H34  1  0.08760000  0.28430000  0.38510000  1
  H  H35  1  0.09490000  0.78580000  0.37340000  1
  H  H36  1  0.09580000  0.50880000  0.67880000  1
  H  H37  1  0.10380000  0.23680000  0.53220000  1
  H  H38  1  0.11770000  0.66110000  0.52530000  1
  H  H39  1  0.12710000  0.83070000  0.78750000  1
  H  H40  1  0.12720000  0.53220000  0.23680000  1
  H  H41  1  0.12740000  0.82960000  0.16480000  1
  H  H42  1  0.13020000  0.53460000  0.39440000  1
  H  H43  1  0.13660000  0.06060000  0.04860000  1
  H  H44  1  0.13740000  0.36860000  0.12240000  1
  H  H45  1  0.14830000  0.42870000  0.49350000  1
  H  H46  1  0.16050000  0.03790000  0.59570000  1
  H  H47  1  0.16280000  0.80520000  0.31100000  1
  H  H48  1  0.17230000  0.90220000  0.48340000  1
  H  H49  1  0.17490000  0.38630000  0.92910000  1
  H  H50  1  0.18060000  0.36290000  0.48150000  1
  H  H51  1  0.18490000  0.82530000  0.41890000  1
  H  H52  1  0.19080000  0.93540000  0.63460000  1
  H  H53  1  0.19590000  0.16110000  0.02530000  1
  H  H54  1  0.20590000  0.59570000  0.03790000  1
  H  H55  1  0.21320000  0.49520000  0.50540000  1
  H  H56  1  0.21660000  0.00880000  0.17880000  1
  H  H57  1  0.22060000  0.47490000  0.91990000  1
  H  H58  1  0.22100000  0.30520000  0.81100000  1
  H  H59  1  0.23340000  0.02470000  0.26770000  1
  H  H60  1  0.23920000  0.63460000  0.93540000  1
  H  H61  1  0.24010000  0.89220000  0.32400000  1
  H  H62  1  0.24030000  0.24760000  0.56600000  1
  H  H63  1  0.24300000  0.38510000  0.28430000  1
  H  H64  1  0.24330000  0.10180000  0.67620000  1
  H  H65  1  0.24380000  0.29270000  0.39350000  1
  H  H66  1  0.24590000  0.28580000  0.87340000  1
  H  H67  1  0.24950000  0.38680000  0.03400000  1
  H  H68  1  0.25420000  0.56060000  0.54860000  1
  H  H69  1  0.25470000  0.78750000  0.83070000  1
  H  H70  1  0.25920000  0.77450000  0.38350000  1
  H  H71  1  0.26900000  0.00660000  0.35900000  1
  H  H72  1  0.27350000  0.88140000  0.78140000  1
  H  H73  1  0.27540000  0.19050000  0.51110000  1
  H  H74  1  0.28480000  0.54100000  0.11820000  1
  H  H75  1  0.28620000  0.99520000  0.00540000  1
  H  H76  1  0.29640000  0.75110000  0.92190000  1
  H  H77  1  0.30350000  0.38160000  0.75480000  1
  H  H78  1  0.30940000  0.87040000  0.36980000  1
  H  H79  1  0.32090000  0.97210000  0.77710000  1
  H  H80  1  0.32970000  0.03400000  0.38680000  1
  H  H81  1  0.34300000  0.52830000  0.62250000  1
  H  H82  1  0.34920000  0.47000000  0.74560000  1
  H  H83  1  0.35040000  0.62310000  0.10270000  1
  H  H84  1  0.35670000  0.80850000  0.96410000  1
  H  H85  1  0.35680000  0.00160000  0.09680000  1
  H  H86  1  0.35710000  0.47690000  0.10890000  1
  H  H87  1  0.35960000  0.42940000  0.67020000  1
  H  H88  1  0.36540000  0.35900000  0.00660000  1
  H  H89  1  0.37070000  0.30850000  0.46410000  1
  H  H90  1  0.37160000  0.12240000  0.36860000  1
  H  H91  1  0.37230000  0.10370000  0.01030000  1
  H  H92  1  0.37240000  0.90300000  0.23280000  1
  H  H93  1  0.37820000  0.32960000  0.66480000  1
  H  H94  1  0.38460000  0.91990000  0.47490000  1
  H  H95  1  0.38580000  0.21170000  0.38530000  1
  H  H96  1  0.38650000  0.02490000  0.61850000  1
  H  H97  1  0.40190000  0.74670000  0.34370000  1
  H  H98  1  0.41470000  0.62530000  0.03690000  1
  H  H99  1  0.41860000  0.37010000  0.22590000  1
  H  H100  1  0.42310000  0.12530000  0.53690000  1
  H  H101  1  0.42380000  0.12310000  0.60270000  1
  H  H102  1  0.42950000  0.92870000  0.99350000  1
  H  H103  1  0.42970000  0.02940000  0.54940000  1
  H  H104  1  0.42990000  0.47210000  0.27710000  1
  H  H105  1  0.43520000  0.74560000  0.47000000  1
  H  H106  1  0.44080000  0.03460000  0.89440000  1
  H  H107  1  0.44210000  0.48340000  0.90220000  1
  H  H108  1  0.44610000  0.74760000  0.06600000  1
  H  H109  1  0.45040000  0.36980000  0.87040000  1
  H  H110  1  0.45560000  0.46510000  0.99830000  1
  H  H111  1  0.46260000  0.16240000  0.86080000  1
  H  H112  1  0.47010000  0.52490000  0.11850000  1
  H  H113  1  0.47420000  0.26770000  0.02470000  1
  H  H114  1  0.47500000  0.86290000  0.98150000  1
  H  H115  1  0.47840000  0.27340000  0.70460000  1
  H  H116  1  0.47870000  0.60180000  0.17620000  1
  H  H117  1  0.48540000  0.87010000  0.72590000  1
  H  H118  1  0.49150000  0.52940000  0.04940000  1
  H  H119  1  0.49180000  0.23280000  0.90300000  1
  H  H120  1  0.50620000  0.62250000  0.52830000  1
  H  H121  1  0.50770000  0.34370000  0.74670000  1
  H  H122  1  0.50970000  0.92910000  0.38630000  1
  H  H123  1  0.51370000  0.01030000  0.10370000  1
  H  H124  1  0.51420000  0.86080000  0.16240000  1
  H  H125  1  0.51720000  0.71170000  0.88530000  1
  H  H126  1  0.52300000  0.69050000  0.01110000  1
  H  H127  1  0.53060000  0.25110000  0.42190000  1
  H  H128  1  0.54080000  0.67020000  0.42940000  1
  H  H129  1  0.54220000  0.84940000  0.54340000  1
  H  H130  1  0.54360000  0.70460000  0.27340000  1
  H  H131  1  0.54370000  0.32400000  0.89220000  1
  H  H132  1  0.54420000  0.54630000  0.85050000  1
  H  H133  1  0.54480000  0.09680000  0.00160000  1
  H  H134  1  0.55600000  0.04100000  0.61820000  1
  H  H135  1  0.55710000  0.97690000  0.60890000  1
  H  H136  1  0.55900000  0.04630000  0.35050000  1
  H  H137  1  0.56010000  0.75480000  0.38160000  1
  H  H138  1  0.56370000  0.38140000  0.28140000  1
  H  H139  1  0.56500000  0.34940000  0.04340000  1
  H  H140  1  0.57000000  0.79270000  0.89350000  1
  H  H141  1  0.57090000  0.41890000  0.82530000  1
  H  H142  1  0.57210000  0.19810000  0.64810000  1
  H  H143  1  0.58100000  0.96510000  0.49830000  1
  H  H144  1  0.58170000  0.64810000  0.19810000  1
  H  H145  1  0.58280000  0.38350000  0.77450000  1
  H  H146  1  0.58760000  0.88510000  0.78430000  1
  H  H147  1  0.59490000  0.87340000  0.28580000  1
  H  H148  1  0.59580000  0.17880000  0.00880000  1
  H  H149  1  0.60380000  0.03220000  0.73680000  1
  H  H150  1  0.61770000  0.02530000  0.16110000  1
  H  H151  1  0.62710000  0.28750000  0.33070000  1
  H  H152  1  0.62720000  0.73680000  0.03220000  1
  H  H153  1  0.62740000  0.66480000  0.32960000  1
  H  H154  1  0.63020000  0.89440000  0.03460000  1
  H  H155  1  0.63660000  0.54860000  0.56060000  1
  H  H156  1  0.63740000  0.62240000  0.86860000  1
  H  H157  1  0.64830000  0.99350000  0.92870000  1
  H  H158  1  0.66050000  0.09570000  0.53790000  1
  H  H159  1  0.66280000  0.81100000  0.30520000  1
  H  H160  1  0.67230000  0.98340000  0.40220000  1
  H  H161  1  0.67490000  0.42910000  0.88630000  1
  H  H162  1  0.68060000  0.98150000  0.86290000  1
  H  H163  1  0.68490000  0.91890000  0.32530000  1
  H  H164  1  0.69080000  0.13460000  0.43540000  1
  H  H165  1  0.69590000  0.52530000  0.66110000  1
  H  H166  1  0.70590000  0.53790000  0.09570000  1
  H  H167  1  0.71320000  0.00540000  0.99520000  1
  H  H168  1  0.71660000  0.67880000  0.50880000  1
  H  H169  1  0.72060000  0.41990000  0.97490000  1
  H  H170  1  0.72100000  0.31100000  0.80520000  1
  H  H171  1  0.73340000  0.76770000  0.52470000  1
  H  H172  1  0.73920000  0.43540000  0.13460000  1
  H  H173  1  0.74010000  0.82400000  0.39220000  1
  H  H174  1  0.74030000  0.06600000  0.74760000  1
  H  H175  1  0.74300000  0.78430000  0.88510000  1
  H  H176  1  0.74330000  0.17620000  0.60180000  1
  H  H177  1  0.74380000  0.89350000  0.79270000  1
  H  H178  1  0.74590000  0.37340000  0.78580000  1
  H  H179  1  0.74950000  0.53400000  0.88680000  1
  H  H180  1  0.75420000  0.04860000  0.06060000  1
  H  H181  1  0.75470000  0.33070000  0.28750000  1
  H  H182  1  0.75920000  0.88350000  0.27450000  1
  H  H183  1  0.76900000  0.85900000  0.50660000  1
  H  H184  1  0.77350000  0.28140000  0.38140000  1
  H  H185  1  0.77540000  0.01110000  0.69050000  1
  H  H186  1  0.78480000  0.61820000  0.04100000  1
  H  H187  1  0.78620000  0.50540000  0.49520000  1
  H  H188  1  0.79640000  0.42190000  0.25110000  1
  H  H189  1  0.80350000  0.25480000  0.88160000  1
  H  H190  1  0.80940000  0.86980000  0.37040000  1
  H  H191  1  0.82090000  0.27710000  0.47210000  1
  H  H192  1  0.82970000  0.88680000  0.53400000  1
  H  H193  1  0.84300000  0.12250000  0.02830000  1
  H  H194  1  0.84920000  0.24560000  0.97000000  1
  H  H195  1  0.85040000  0.60270000  0.12310000  1
  H  H196  1  0.85670000  0.46410000  0.30850000  1
  H  H197  1  0.85680000  0.59680000  0.50160000  1
  H  H198  1  0.85710000  0.60890000  0.97690000  1
  H  H199  1  0.85960000  0.17020000  0.92940000  1
  H  H200  1  0.86540000  0.50660000  0.85900000  1
  H  H201  1  0.87070000  0.96410000  0.80850000  1
  H  H202  1  0.87160000  0.86860000  0.62240000  1
  H  H203  1  0.87230000  0.51030000  0.60370000  1
  H  H204  1  0.87240000  0.73280000  0.40300000  1
  H  H205  1  0.87820000  0.16480000  0.82960000  1
  H  H206  1  0.88460000  0.97490000  0.41990000  1
  H  H207  1  0.88580000  0.88530000  0.71170000  1
  H  H208  1  0.88650000  0.11850000  0.52490000  1
  H  H209  1  0.90190000  0.84370000  0.24670000  1
  H  H210  1  0.91470000  0.53690000  0.12530000  1
  H  H211  1  0.91860000  0.72590000  0.87010000  1
  H  H212  1  0.92310000  0.03690000  0.62530000  1
  H  H213  1  0.92380000  0.10270000  0.62310000  1
  H  H214  1  0.92950000  0.49350000  0.42870000  1
  H  H215  1  0.92970000  0.04940000  0.52940000  1
  H  H216  1  0.92990000  0.77710000  0.97210000  1
  H  H217  1  0.93520000  0.97000000  0.24560000  1
  H  H218  1  0.94080000  0.39440000  0.53460000  1
  H  H219  1  0.94210000  0.40220000  0.98340000  1
  H  H220  1  0.94610000  0.56600000  0.24760000  1
  H  H221  1  0.95040000  0.37040000  0.86980000  1
  H  H222  1  0.95560000  0.49830000  0.96510000  1
  H  H223  1  0.96260000  0.36080000  0.66240000  1
  H  H224  1  0.97010000  0.61850000  0.02490000  1
  H  H225  1  0.97420000  0.52470000  0.76770000  1
  H  H226  1  0.97500000  0.48150000  0.36290000  1
  H  H227  1  0.97840000  0.20460000  0.77340000  1
  H  H228  1  0.97870000  0.67620000  0.10180000  1
  H  H229  1  0.98540000  0.22590000  0.37010000  1
  H  H230  1  0.99150000  0.54940000  0.02940000  1
  H  H231  1  0.99180000  0.40300000  0.73280000  1
  C  C232  1  0.00270000  0.32900000  0.79520000  1
  C  C233  1  0.00520000  0.90230000  0.78870000  1
  C  C234  1  0.00800000  0.64680000  0.12920000  1
  C  C235  1  0.00930000  0.76530000  0.24430000  1
  C  C236  1  0.01680000  0.35730000  0.84310000  1
  C  C237  1  0.02490000  0.90030000  0.28790000  1
  C  C238  1  0.02500000  0.81800000  0.86680000  1
  C  C239  1  0.02670000  0.51230000  0.68150000  1
  C  C240  1  0.03150000  0.24930000  0.04190000  1
  C  C241  1  0.03370000  0.14000000  0.35680000  1
  C  C242  1  0.03460000  0.54910000  0.18170000  1
  C  C243  1  0.04210000  0.09280000  0.51900000  1
  C  C244  1  0.04230000  0.19340000  0.36680000  1
  C  C245  1  0.04730000  0.87520000  0.34280000  1
  C  C246  1  0.06160000  0.69390000  0.52810000  1
  C  C247  1  0.06300000  0.84750000  0.81050000  1
  C  C248  1  0.06850000  0.00160000  0.10940000  1
  C  C249  1  0.07040000  0.66010000  0.15710000  1
  C  C250  1  0.07150000  0.74730000  0.53770000  1
  C  C251  1  0.07600000  0.64010000  0.85510000  1
  C  C252  1  0.08630000  0.94180000  0.13560000  1
  C  C253  1  0.08660000  0.38190000  0.20830000  1
  C  C254  1  0.08990000  0.31480000  0.87940000  1
  C  C255  1  0.09720000  0.56190000  0.20970000  1
  C  C256  1  0.10180000  0.02960000  0.53080000  1
  C  C257  1  0.11200000  0.98710000  0.49690000  1
  C  C258  1  0.11240000  0.15710000  0.66010000  1
  C  C259  1  0.11820000  0.38690000  0.25690000  1
  C  C260  1  0.11880000  0.09150000  0.35190000  1
  C  C261  1  0.12970000  0.81640000  0.35020000  1
  C  C262  1  0.13120000  0.20970000  0.56190000  1
  C  C263  1  0.13590000  0.19840000  0.37180000  1
  C  C264  1  0.14350000  0.24730000  0.03770000  1
  C  C265  1  0.14450000  0.25180000  0.38180000  1
  C  C266  1  0.14550000  0.02000000  0.06300000  1
  C  C267  1  0.15130000  0.01030000  0.57710000  1
  C  C268  1  0.15860000  0.37190000  0.15490000  1
  C  C269  1  0.16660000  0.92900000  0.50780000  1
  C  C270  1  0.17350000  0.90040000  0.11020000  1
  C  C271  1  0.17400000  0.29640000  0.04200000  1
  C  C272  1  0.17730000  0.74930000  0.54190000  1
  C  C273  1  0.18140000  0.84060000  0.13460000  1
  C  C274  1  0.18650000  0.94960000  0.59540000  1
  C  C275  1  0.20370000  0.31640000  0.85020000  1
  C  C276  1  0.20690000  0.39530000  0.48430000  1
  C  C277  1  0.20990000  0.40310000  0.89230000  1
  C  C278  1  0.21240000  0.09640000  0.35700000  1
  C  C279  1  0.21590000  0.81480000  0.37940000  1
  C  C280  1  0.21600000  0.12920000  0.64680000  1
  C  C281  1  0.21640000  0.19390000  0.02810000  1
  C  C282  1  0.22100000  0.14990000  0.36690000  1
  C  C283  1  0.22190000  0.38180000  0.25180000  1
  C  C284  1  0.23460000  0.18170000  0.54910000  1
  C  C285  1  0.23470000  0.37520000  0.84280000  1
  C  C286  1  0.23580000  0.98160000  0.03660000  1
  C  C287  1  0.23720000  0.45620000  0.88680000  1
  C  C288  1  0.23770000  0.47000000  0.39360000  1
  C  C289  1  0.23800000  0.25690000  0.38690000  1
  C  C290  1  0.24030000  0.55560000  0.30180000  1
  C  C291  1  0.24600000  0.48160000  0.53660000  1
  C  C292  1  0.24600000  0.92070000  0.06010000  1
  C  C293  1  0.25920000  0.37600000  0.53500000  1
  C  C294  1  0.26130000  0.57710000  0.01030000  1
  C  C295  1  0.26220000  0.36690000  0.14990000  1
  C  C296  1  0.26850000  0.59540000  0.94960000  1
  C  C297  1  0.26950000  0.79670000  0.11430000  1
  C  C298  1  0.27150000  0.52000000  0.56300000  1
  C  C299  1  0.27290000  0.31790000  0.56590000  1
  C  C300  1  0.27320000  0.42070000  0.56010000  1
  C  C301  1  0.27560000  0.41380000  0.42320000  1
  C  C302  1  0.27740000  0.29220000  0.03680000  1
  C  C303  1  0.27900000  0.81050000  0.84750000  1
  C  C304  1  0.27950000  0.01230000  0.18150000  1
  C  C305  1  0.28010000  0.14060000  0.59120000  1
  C  C306  1  0.28280000  0.85730000  0.34310000  1
  C  C307  1  0.28440000  0.73470000  0.14530000  1
  C  C308  1  0.28690000  0.40030000  0.78790000  1
  C  C309  1  0.28960000  0.02180000  0.23480000  1
  C  C310  1  0.29020000  0.86680000  0.81800000  1
  C  C311  1  0.29390000  0.37180000  0.19840000  1
  C  C312  1  0.29550000  0.49190000  0.33890000  1
  C  C313  1  0.29940000  0.03990000  0.35350000  1
  C  C314  1  0.30380000  0.78870000  0.90230000  1
  C  C315  1  0.30720000  0.35350000  0.03990000  1
  C  C316  1  0.31430000  0.45330000  0.78230000  1
  C  C317  1  0.31460000  0.15490000  0.37190000  1
  C  C318  1  0.31590000  0.40040000  0.61020000  1
  C  C319  1  0.31950000  0.29670000  0.61430000  1
  C  C320  1  0.31980000  0.18980000  0.02280000  1
  C  C321  1  0.32050000  0.50160000  0.60940000  1
  C  C322  1  0.32320000  0.20830000  0.38190000  1
  C  C323  1  0.32640000  0.90120000  0.84320000  1
  C  C324  1  0.32980000  0.87600000  0.03500000  1
  C  C325  1  0.33420000  0.35700000  0.09640000  1
  C  C326  1  0.33560000  0.23470000  0.64530000  1
  C  C327  1  0.33630000  0.44180000  0.63560000  1
  C  C328  1  0.33760000  0.95750000  0.81370000  1
  C  C329  1  0.33780000  0.53080000  0.02960000  1
  C  C330  1  0.34000000  0.82310000  0.92750000  1
  C  C331  1  0.34330000  0.81790000  0.06590000  1
  C  C332  1  0.34340000  0.34060000  0.63460000  1
  C  C333  1  0.34610000  0.51900000  0.09280000  1
  C  C334  1  0.35030000  0.23900000  0.02720000  1
  C  C335  1  0.35130000  0.87930000  0.89790000  1
  C  C336  1  0.36350000  0.00800000  0.13240000  1
  C  C337  1  0.37150000  0.37930000  0.39790000  1
  C  C338  1  0.37310000  0.82900000  0.29520000  1
  C  C339  1  0.37370000  0.99190000  0.83890000  1
  C  C340  1  0.38350000  0.02720000  0.23900000  1
  C  C341  1  0.38740000  0.91380000  0.92320000  1
  C  C342  1  0.39120000  0.45750000  0.31370000  1
  C  C343  1  0.39270000  0.13660000  0.01320000  1
  C  C344  1  0.39320000  0.10970000  0.57790000  1
  C  C345  1  0.39360000  0.03680000  0.29220000  1
  C  C346  1  0.39660000  0.50780000  0.92900000  1
  C  C347  1  0.39750000  0.36680000  0.19340000  1
  C  C348  1  0.39870000  0.97000000  0.89360000  1
  C  C349  1  0.40230000  0.05560000  0.80180000  1
  C  C350  1  0.40400000  0.49690000  0.98710000  1
  C  C351  1  0.40670000  0.86320000  0.24100000  1
  C  C352  1  0.40940000  0.32310000  0.42750000  1
  C  C353  1  0.41350000  0.89530000  0.98430000  1
  C  C354  1  0.41920000  0.60970000  0.07790000  1
  C  C355  1  0.41980000  0.88680000  0.45620000  1
  C  C356  1  0.42440000  0.76960000  0.30740000  1
  C  C357  1  0.42880000  0.85510000  0.64010000  1
  C  C358  1  0.42920000  0.40120000  0.34320000  1
  C  C359  1  0.43250000  0.04250000  0.58450000  1
  C  C360  1  0.43780000  0.35190000  0.09150000  1
  C  C361  1  0.44050000  0.54250000  0.08450000  1
  C  C362  1  0.45010000  0.78230000  0.45330000  1
  C  C363  1  0.45380000  0.23480000  0.02180000  1
  C  C364  1  0.45750000  0.01320000  0.13660000  1
  C  C365  1  0.46760000  0.02280000  0.18980000  1
  C  C366  1  0.46950000  0.35680000  0.14000000  1
  C  C367  1  0.47160000  0.19880000  0.83800000  1
  C  C368  1  0.48110000  0.26530000  0.74430000  1
  C  C369  1  0.48760000  0.04200000  0.29640000  1
  C  C370  1  0.48810000  0.64060000  0.09120000  1
  C  C371  1  0.48910000  0.24100000  0.86320000  1
  C  C372  1  0.49160000  0.83800000  0.19880000  1
  C  C373  1  0.49470000  0.89230000  0.40310000  1
  C  C374  1  0.49610000  0.13240000  0.00800000  1
  C  C375  1  0.49860000  0.30740000  0.76960000  1
  C  C376  1  0.50270000  0.29520000  0.82900000  1
  C  C377  1  0.50520000  0.28870000  0.40230000  1
  C  C378  1  0.50800000  0.62920000  0.14680000  1
  C  C379  1  0.50930000  0.74430000  0.26530000  1
  C  C380  1  0.51680000  0.34310000  0.85730000  1
  C  C381  1  0.52490000  0.78790000  0.40030000  1
  C  C382  1  0.52500000  0.36680000  0.31800000  1
  C  C383  1  0.52670000  0.18150000  0.01230000  1
  C  C384  1  0.53150000  0.54190000  0.74930000  1
  C  C385  1  0.53370000  0.85680000  0.64000000  1
  C  C386  1  0.53460000  0.68170000  0.04910000  1
  C  C387  1  0.54210000  0.01900000  0.59280000  1
  C  C388  1  0.54230000  0.86680000  0.69340000  1
  C  C389  1  0.54730000  0.84280000  0.37520000  1
  C  C390  1  0.56160000  0.02810000  0.19390000  1
  C  C391  1  0.56300000  0.31050000  0.34750000  1
  C  C392  1  0.56850000  0.60940000  0.50160000  1
  C  C393  1  0.57040000  0.65710000  0.16010000  1
  C  C394  1  0.57150000  0.03770000  0.24730000  1
  C  C395  1  0.57600000  0.35510000  0.14010000  1
  C  C396  1  0.58630000  0.63560000  0.44180000  1
  C  C397  1  0.58660000  0.70830000  0.88190000  1
  C  C398  1  0.58990000  0.37940000  0.81480000  1
  C  C399  1  0.59720000  0.70970000  0.06190000  1
  C  C400  1  0.60180000  0.03080000  0.52960000  1
  C  C401  1  0.61200000  0.99690000  0.48710000  1
  C  C402  1  0.61240000  0.16010000  0.65710000  1
  C  C403  1  0.61820000  0.75690000  0.88690000  1
  C  C404  1  0.61880000  0.85190000  0.59150000  1
  C  C405  1  0.62970000  0.85020000  0.31640000  1
  C  C406  1  0.63120000  0.06190000  0.70970000  1
  C  C407  1  0.63590000  0.87180000  0.69840000  1
  C  C408  1  0.64350000  0.53770000  0.74730000  1
  C  C409  1  0.64450000  0.88180000  0.75180000  1
  C  C410  1  0.64550000  0.56300000  0.52000000  1
  C  C411  1  0.65130000  0.07710000  0.51030000  1
  C  C412  1  0.65860000  0.65490000  0.87190000  1
  C  C413  1  0.66666667  0.00780000  0.42900000  1
  C  C414  1  0.67350000  0.61020000  0.40040000  1
  C  C415  1  0.67400000  0.54200000  0.79640000  1
  C  C416  1  0.67730000  0.04190000  0.24930000  1
  C  C417  1  0.68140000  0.63460000  0.34060000  1
  C  C418  1  0.68650000  0.09540000  0.44960000  1
  C  C419  1  0.70370000  0.35020000  0.81640000  1
  C  C420  1  0.70690000  0.98430000  0.89530000  1
  C  C421  1  0.70990000  0.39230000  0.90310000  1
  C  C422  1  0.71240000  0.85700000  0.59640000  1
  C  C423  1  0.71590000  0.87940000  0.31480000  1
  C  C424  1  0.71600000  0.14680000  0.62920000  1
  C  C425  1  0.71640000  0.52810000  0.69390000  1
  C  C426  1  0.72100000  0.86690000  0.64990000  1
  C  C427  1  0.72190000  0.75180000  0.88180000  1
  C  C428  1  0.73460000  0.04910000  0.68170000  1
  C  C429  1  0.73470000  0.34280000  0.87520000  1
  C  C430  1  0.73580000  0.53660000  0.48160000  1
  C  C431  1  0.73720000  0.38680000  0.95620000  1
  C  C432  1  0.73770000  0.89360000  0.97000000  1
  C  C433  1  0.73800000  0.88690000  0.75690000  1
  C  C434  1  0.74030000  0.80180000  0.05560000  1
  C  C435  1  0.74600000  0.03660000  0.98160000  1
  C  C436  1  0.74600000  0.56010000  0.42070000  1
  C  C437  1  0.75920000  0.03500000  0.87600000  1
  C  C438  1  0.76130000  0.51030000  0.07710000  1
  C  C439  1  0.76220000  0.64990000  0.86690000  1
  C  C440  1  0.76850000  0.44960000  0.09540000  1
  C  C441  1  0.76950000  0.61430000  0.29670000  1
  C  C442  1  0.77150000  0.06300000  0.02000000  1
  C  C443  1  0.77290000  0.06590000  0.81790000  1
  C  C444  1  0.77320000  0.06010000  0.92070000  1
  C  C445  1  0.77560000  0.92320000  0.91380000  1
  C  C446  1  0.77740000  0.53680000  0.79220000  1
  C  C447  1  0.77900000  0.34750000  0.31050000  1
  C  C448  1  0.77950000  0.68150000  0.51230000  1
  C  C449  1  0.78010000  0.09120000  0.64060000  1
  C  C450  1  0.78280000  0.84310000  0.35730000  1
  C  C451  1  0.78440000  0.64530000  0.23470000  1
  C  C452  1  0.78690000  0.28790000  0.90030000  1
  C  C453  1  0.78960000  0.73480000  0.52180000  1
  C  C454  1  0.79020000  0.31800000  0.36680000  1
  C  C455  1  0.79390000  0.69840000  0.87180000  1
  C  C456  1  0.79550000  0.83890000  0.99190000  1
  C  C457  1  0.79940000  0.85350000  0.53990000  1
  C  C458  1  0.80380000  0.40230000  0.28870000  1
  C  C459  1  0.80720000  0.53990000  0.85350000  1
  C  C460  1  0.81430000  0.28230000  0.95330000  1
  C  C461  1  0.81460000  0.87190000  0.65490000  1
  C  C462  1  0.81590000  0.11020000  0.90040000  1
  C  C463  1  0.81950000  0.11430000  0.79670000  1
  C  C464  1  0.81980000  0.52280000  0.68980000  1
  C  C465  1  0.82050000  0.10940000  0.00160000  1
  C  C466  1  0.82320000  0.88190000  0.70830000  1
  C  C467  1  0.82640000  0.34320000  0.40120000  1
  C  C468  1  0.82980000  0.53500000  0.37600000  1
  C  C469  1  0.83420000  0.59640000  0.85700000  1
  C  C470  1  0.83560000  0.14530000  0.73470000  1
  C  C471  1  0.83630000  0.13560000  0.94180000  1
  C  C472  1  0.83760000  0.31370000  0.45750000  1
  C  C473  1  0.83780000  0.52960000  0.03080000  1
  C  C474  1  0.84000000  0.42750000  0.32310000  1
  C  C475  1  0.84330000  0.56590000  0.31790000  1
  C  C476  1  0.84340000  0.13460000  0.84060000  1
  C  C477  1  0.84610000  0.59280000  0.01900000  1
  C  C478  1  0.85030000  0.52720000  0.73900000  1
  C  C479  1  0.85130000  0.39790000  0.37930000  1
  C  C480  1  0.86350000  0.63240000  0.50800000  1
  C  C481  1  0.87150000  0.89790000  0.87930000  1
  C  C482  1  0.87310000  0.79520000  0.32900000  1
  C  C483  1  0.87370000  0.33890000  0.49190000  1
  C  C484  1  0.88350000  0.73900000  0.52720000  1
  C  C485  1  0.88740000  0.42320000  0.41380000  1
  C  C486  1  0.89120000  0.81370000  0.95750000  1
  C  C487  1  0.89270000  0.51320000  0.63660000  1
  C  C488  1  0.89320000  0.07790000  0.60970000  1
  C  C489  1  0.89360000  0.79220000  0.53680000  1
  C  C490  1  0.89660000  0.42900000  0.00780000  1
  C  C491  1  0.89750000  0.69340000  0.86680000  1
  C  C492  1  0.89870000  0.39360000  0.47000000  1
  C  C493  1  0.90230000  0.30180000  0.55560000  1
  C  C494  1  0.90400000  0.48710000  0.99690000  1
  C  C495  1  0.90670000  0.74100000  0.36320000  1
  C  C496  1  0.90940000  0.92750000  0.82310000  1
  C  C497  1  0.91350000  0.48430000  0.39530000  1
  C  C498  1  0.91920000  0.57790000  0.10970000  1
  C  C499  1  0.91980000  0.95620000  0.38680000  1
  C  C500  1  0.92440000  0.80740000  0.26960000  1
  C  C501  1  0.92880000  0.14010000  0.35510000  1
  C  C502  1  0.92920000  0.84320000  0.90120000  1
  C  C503  1  0.93250000  0.08450000  0.54250000  1
  C  C504  1  0.93780000  0.59150000  0.85190000  1
  C  C505  1  0.94050000  0.58450000  0.04250000  1
  C  C506  1  0.95010000  0.95330000  0.28230000  1
  C  C507  1  0.95380000  0.52180000  0.73480000  1
  C  C508  1  0.95750000  0.63660000  0.51320000  1
  C  C509  1  0.96760000  0.68980000  0.52280000  1
  C  C510  1  0.96950000  0.64000000  0.85680000  1
  C  C511  1  0.97160000  0.33800000  0.69880000  1
  C  C512  1  0.98110000  0.24430000  0.76530000  1
  C  C513  1  0.98760000  0.79640000  0.54200000  1
  C  C514  1  0.98810000  0.59120000  0.14060000  1
  C  C515  1  0.98910000  0.36320000  0.74100000  1
  C  C516  1  0.99160000  0.69880000  0.33800000  1
  C  C517  1  0.99470000  0.90310000  0.39230000  1
  C  C518  1  0.99610000  0.50800000  0.63240000  1
  C  C519  1  0.99860000  0.26960000  0.80740000  1
  N  N520  1  0.04290000  0.71090000  0.27850000  1
  N  N521  1  0.06760000  0.19820000  0.61760000  1
  N  N522  1  0.11660000  0.61760000  0.19820000  1
  N  N523  1  0.21420000  0.91020000  0.55500000  1
  N  N524  1  0.28940000  0.48130000  0.83190000  1
  N  N525  1  0.32060000  0.55500000  0.91020000  1
  N  N526  1  0.39740000  0.83190000  0.48130000  1
  N  N527  1  0.46770000  0.21090000  0.77850000  1
  N  N528  1  0.54290000  0.77850000  0.21090000  1
  N  N529  1  0.56760000  0.11760000  0.69820000  1
  N  N530  1  0.61660000  0.69820000  0.11760000  1
  N  N531  1  0.71420000  0.05500000  0.41020000  1
  N  N532  1  0.78940000  0.33190000  0.98130000  1
  N  N533  1  0.82060000  0.41020000  0.05500000  1
  N  N534  1  0.89740000  0.98130000  0.33190000  1
  N  N535  1  0.96770000  0.27850000  0.71090000  1
  O  O536  1  0.00030000  0.85400000  0.54360000  1
  O  O537  1  0.00510000  0.20160000  0.04560000  1
  O  O538  1  0.00920000  0.53870000  0.84930000  1
  O  O539  1  0.10130000  0.68320000  0.85980000  1
  O  O540  1  0.10210000  0.35400000  0.04360000  1
  O  O541  1  0.10280000  0.03870000  0.34930000  1
  O  O542  1  0.14170000  0.50260000  0.41620000  1
  O  O543  1  0.14260000  0.59060000  0.84780000  1
  O  O544  1  0.16380000  0.58160000  0.32140000  1
  O  O545  1  0.19070000  0.79890000  0.54830000  1
  O  O546  1  0.22110000  0.71260000  0.18140000  1
  O  O547  1  0.23610000  0.28000000  0.54400000  1
  O  O548  1  0.24770000  0.70160000  0.54560000  1
  O  O549  1  0.30600000  0.56330000  0.25030000  1
  O  O550  1  0.31910000  0.19580000  0.62580000  1
  O  O551  1  0.35570000  0.85980000  0.68320000  1
  O  O552  1  0.35930000  0.69580000  0.12580000  1
  O  O553  1  0.38040000  0.06330000  0.75030000  1
  O  O554  1  0.38490000  0.21260000  0.68140000  1
  O  O555  1  0.41900000  0.84780000  0.59060000  1
  O  O556  1  0.43320000  0.08160000  0.82140000  1
  O  O557  1  0.43950000  0.00260000  0.91620000  1
  O  O558  1  0.43990000  0.78000000  0.04400000  1
  O  O559  1  0.46210000  0.54830000  0.79890000  1
  O  O560  1  0.50030000  0.04360000  0.35400000  1
  O  O561  1  0.50510000  0.54560000  0.70160000  1
  O  O562  1  0.50920000  0.34930000  0.03870000  1
  O  O563  1  0.60130000  0.35980000  0.18320000  1
  O  O564  1  0.60210000  0.54360000  0.85400000  1
  O  O565  1  0.60280000  0.84930000  0.53870000  1
  O  O566  1  0.64170000  0.91620000  0.00260000  1
  O  O567  1  0.64260000  0.34780000  0.09060000  1
  O  O568  1  0.66380000  0.82140000  0.08160000  1
  O  O569  1  0.69070000  0.04830000  0.29890000  1
  O  O570  1  0.72110000  0.68140000  0.21260000  1
  O  O571  1  0.73610000  0.04400000  0.78000000  1
  O  O572  1  0.74770000  0.04560000  0.20160000  1
  O  O573  1  0.80600000  0.75030000  0.06330000  1
  O  O574  1  0.81910000  0.12580000  0.69580000  1
  O  O575  1  0.85570000  0.18320000  0.35980000  1
  O  O576  1  0.85930000  0.62580000  0.19580000  1
  O  O577  1  0.88040000  0.25030000  0.56330000  1
  O  O578  1  0.88490000  0.18140000  0.71260000  1
  O  O579  1  0.91900000  0.09060000  0.34780000  1
  O  O580  1  0.93320000  0.32140000  0.58160000  1
  O  O581  1  0.93950000  0.41620000  0.50260000  1
  O  O582  1  0.93990000  0.54400000  0.28000000  1
  O  O583  1  0.96210000  0.29890000  0.04830000  1
