# generated using pymatgen
data_FeP2H12C6(NO3)2
_symmetry_space_group_name_H-M   'P 1'
_cell_length_a   8.30810000
_cell_length_b   9.16470000
_cell_length_c   9.18390000
_cell_angle_alpha   62.78100000
_cell_angle_beta   79.02900000
_cell_angle_gamma   87.08800000
_symmetry_Int_Tables_number   1
_chemical_formula_structural   FeP2H12C6(NO3)2
_chemical_formula_sum   'Fe2 P4 H24 C12 N4 O12'
_cell_volume   609.94800602
_cell_formula_units_Z   2
loop_
 _symmetry_equiv_pos_site_id
 _symmetry_equiv_pos_as_xyz
  1  'x, y, z'
loop_
 _atom_site_type_symbol
 _atom_site_label
 _atom_site_symmetry_multiplicity
 _atom_site_fract_x
 _atom_site_fract_y
 _atom_site_fract_z
 _atom_site_occupancy
  Fe  Fe0  1  0.24056000  0.57637000  0.42962000  1
  Fe  Fe1  1  0.75944000  0.42363000  0.57038000  1
  P  P2  1  0.05694000  0.25198000  0.46540000  1
  P  P3  1  0.42074000  0.46684000  0.75806000  1
  P  P4  1  0.57926000  0.53316000  0.24194000  1
  P  P5  1  0.94306000  0.74802000  0.53460000  1
  H  H6  1  0.01870000  0.25360000  0.98200000  1
  H  H7  1  0.04490000  0.43110000  0.83170000  1
  H  H8  1  0.14330000  0.01520000  0.67100000  1
  H  H9  1  0.17640000  0.65270000  0.86370000  1
  H  H10  1  0.21070000  0.16950000  0.67460000  1
  H  H11  1  0.22980000  0.61030000  0.03330000  1
  H  H12  1  0.28200000  0.02860000  0.36290000  1
  H  H13  1  0.30520000  0.24030000  0.00220000  1
  H  H14  1  0.30640000  0.88130000  0.53280000  1
  H  H15  1  0.38660000  0.36180000  0.04530000  1
  H  H16  1  0.43300000  0.93360000  0.72990000  1
  H  H17  1  0.48720000  0.11370000  0.68290000  1
  H  H18  1  0.51280000  0.88630000  0.31710000  1
  H  H19  1  0.56700000  0.06640000  0.27010000  1
  H  H20  1  0.61340000  0.63820000  0.95470000  1
  H  H21  1  0.69360000  0.11870000  0.46720000  1
  H  H22  1  0.69480000  0.75970000  0.99780000  1
  H  H23  1  0.71800000  0.97140000  0.63710000  1
  H  H24  1  0.77020000  0.38970000  0.96670000  1
  H  H25  1  0.78930000  0.83050000  0.32540000  1
  H  H26  1  0.82360000  0.34730000  0.13630000  1
  H  H27  1  0.85670000  0.98480000  0.32900000  1
  H  H28  1  0.95510000  0.56890000  0.16830000  1
  H  H29  1  0.98130000  0.74640000  0.01800000  1
  C  C30  1  0.01940000  0.36960000  0.95230000  1
  C  C31  1  0.14810000  0.58660000  0.98360000  1
  C  C32  1  0.19590000  0.12340000  0.60140000  1
  C  C33  1  0.31580000  0.35510000  0.97570000  1
  C  C34  1  0.35330000  0.98630000  0.44440000  1
  C  C35  1  0.47770000  0.03770000  0.63800000  1
  C  C36  1  0.52230000  0.96230000  0.36200000  1
  C  C37  1  0.64670000  0.01370000  0.55560000  1
  C  C38  1  0.68420000  0.64490000  0.02430000  1
  C  C39  1  0.80410000  0.87660000  0.39860000  1
  C  C40  1  0.85190000  0.41340000  0.01640000  1
  C  C41  1  0.98060000  0.63040000  0.04770000  1
  N  N42  1  0.14840000  0.40860000  0.02550000  1
  N  N43  1  0.36270000  0.10370000  0.51550000  1
  N  N44  1  0.63730000  0.89630000  0.48450000  1
  N  N45  1  0.85160000  0.59140000  0.97450000  1
  O  O46  1  0.04200000  0.19410000  0.33900000  1
  O  O47  1  0.10090000  0.76730000  0.40850000  1
  O  O48  1  0.12740000  0.42830000  0.37860000  1
  O  O49  1  0.29730000  0.47690000  0.65210000  1
  O  O50  1  0.44200000  0.64770000  0.25140000  1
  O  O51  1  0.48140000  0.63200000  0.72910000  1
  O  O52  1  0.51860000  0.36800000  0.27090000  1
  O  O53  1  0.55800000  0.35230000  0.74860000  1
  O  O54  1  0.70270000  0.52310000  0.34790000  1
  O  O55  1  0.87260000  0.57170000  0.62140000  1
  O  O56  1  0.89910000  0.23270000  0.59150000  1
  O  O57  1  0.95800000  0.80590000  0.66100000  1
