# generated using pymatgen
data_BaZn2H16(C12O7)2
_symmetry_space_group_name_H-M   'P 1'
_cell_length_a   12.17980000
_cell_length_b   12.17980000
_cell_length_c   12.66340000
_cell_angle_alpha   103.93900000
_cell_angle_beta   103.93900000
_cell_angle_gamma   103.00300000
_symmetry_Int_Tables_number   1
_chemical_formula_structural   BaZn2H16(C12O7)2
_chemical_formula_sum   'Ba2 Zn4 H32 C48 O28'
_cell_volume   1687.80795539
_cell_formula_units_Z   2
loop_
 _symmetry_equiv_pos_site_id
 _symmetry_equiv_pos_as_xyz
  1  'x, y, z'
loop_
 _atom_site_type_symbol
 _atom_site_label
 _atom_site_symmetry_multiplicity
 _atom_site_fract_x
 _atom_site_fract_y
 _atom_site_fract_z
 _atom_site_occupancy
  Ba  Ba0  1  0.18028000  0.81972000  0.75000000  1
  Ba  Ba1  1  0.81972000  0.18028000  0.25000000  1
  Zn  Zn2  1  0.41400000  0.82682000  0.03827000  1
  Zn  Zn3  1  0.17318000  0.58600000  0.46173000  1
  Zn  Zn4  1  0.82682000  0.41400000  0.53827000  1
  Zn  Zn5  1  0.58600000  0.17318000  0.96173000  1
  H  H6  1  0.52690000  0.98810000  0.32380000  1
  H  H7  1  0.79520000  0.95280000  0.37930000  1
  H  H8  1  0.89150000  0.93870000  0.98370000  1
  H  H9  1  0.93870000  0.89150000  0.48370000  1
  H  H10  1  0.47970000  0.87330000  0.87720000  1
  H  H11  1  0.58080000  0.83140000  0.73270000  1
  H  H12  1  0.40830000  0.82730000  0.34910000  1
  H  H13  1  0.95280000  0.79520000  0.87930000  1
  H  H14  1  0.41390000  0.75930000  0.83360000  1
  H  H15  1  0.64190000  0.68470000  0.63100000  1
  H  H16  1  0.68470000  0.64190000  0.13100000  1
  H  H17  1  0.17270000  0.59170000  0.15090000  1
  H  H18  1  0.24070000  0.58610000  0.66640000  1
  H  H19  1  0.83140000  0.58080000  0.23270000  1
  H  H20  1  0.98810000  0.52690000  0.82380000  1
  H  H21  1  0.12670000  0.52030000  0.62280000  1
  H  H22  1  0.87330000  0.47970000  0.37720000  1
  H  H23  1  0.01190000  0.47310000  0.17620000  1
  H  H24  1  0.16860000  0.41920000  0.76730000  1
  H  H25  1  0.75930000  0.41390000  0.33360000  1
  H  H26  1  0.82730000  0.40830000  0.84910000  1
  H  H27  1  0.31530000  0.35810000  0.86900000  1
  H  H28  1  0.35810000  0.31530000  0.36900000  1
  H  H29  1  0.58610000  0.24070000  0.16640000  1
  H  H30  1  0.04720000  0.20480000  0.12070000  1
  H  H31  1  0.59170000  0.17270000  0.65090000  1
  H  H32  1  0.41920000  0.16860000  0.26730000  1
  H  H33  1  0.52030000  0.12670000  0.12280000  1
  H  H34  1  0.06130000  0.10850000  0.51630000  1
  H  H35  1  0.10850000  0.06130000  0.01630000  1
  H  H36  1  0.20480000  0.04720000  0.62070000  1
  H  H37  1  0.47310000  0.01190000  0.67620000  1
  C  C38  1  0.29932000  0.99508000  0.06660000  1
  C  C39  1  0.51650000  0.99310000  0.39500000  1
  C  C40  1  0.42730000  0.90390000  0.51540000  1
  C  C41  1  0.73102000  0.90278000  0.86750000  1
  C  C42  1  0.44500000  0.89720000  0.40990000  1
  C  C43  1  0.84180000  0.88920000  0.91180000  1
  C  C44  1  0.80290000  0.87830000  0.34950000  1
  C  C45  1  0.63942000  0.85038000  0.17390000  1
  C  C46  1  0.88920000  0.84180000  0.41180000  1
  C  C47  1  0.65589000  0.82491000  0.76230000  1
  C  C48  1  0.72746000  0.80474000  0.24280000  1
  C  C49  1  0.87830000  0.80290000  0.84950000  1
  C  C50  1  0.34723000  0.80037000  0.53290000  1
  C  C51  1  0.69300000  0.73740000  0.70100000  1
  C  C52  1  0.90278000  0.73102000  0.36750000  1
  C  C53  1  0.80474000  0.72746000  0.74280000  1
  C  C54  1  0.00492000  0.70068000  0.43340000  1
  C  C55  1  0.73740000  0.69300000  0.20100000  1
  C  C56  1  0.82491000  0.65589000  0.26230000  1
  C  C57  1  0.19963000  0.65277000  0.96710000  1
  C  C58  1  0.85038000  0.63942000  0.67390000  1
  C  C59  1  0.09610000  0.57270000  0.98460000  1
  C  C60  1  0.10280000  0.55500000  0.09010000  1
  C  C61  1  0.99310000  0.51650000  0.89500000  1
  C  C62  1  0.00690000  0.48350000  0.10500000  1
  C  C63  1  0.89720000  0.44500000  0.90990000  1
  C  C64  1  0.90390000  0.42730000  0.01540000  1
  C  C65  1  0.14962000  0.36058000  0.32610000  1
  C  C66  1  0.80037000  0.34723000  0.03290000  1
  C  C67  1  0.17509000  0.34411000  0.73770000  1
  C  C68  1  0.26260000  0.30700000  0.79900000  1
  C  C69  1  0.99508000  0.29932000  0.56660000  1
  C  C70  1  0.19526000  0.27254000  0.25720000  1
  C  C71  1  0.09722000  0.26898000  0.63250000  1
  C  C72  1  0.30700000  0.26260000  0.29900000  1
  C  C73  1  0.65277000  0.19963000  0.46710000  1
  C  C74  1  0.12170000  0.19710000  0.15050000  1
  C  C75  1  0.27254000  0.19526000  0.75720000  1
  C  C76  1  0.34411000  0.17509000  0.23770000  1
  C  C77  1  0.11080000  0.15820000  0.58820000  1
  C  C78  1  0.36058000  0.14962000  0.82610000  1
  C  C79  1  0.19710000  0.12170000  0.65050000  1
  C  C80  1  0.15820000  0.11080000  0.08820000  1
  C  C81  1  0.55500000  0.10280000  0.59010000  1
  C  C82  1  0.26898000  0.09722000  0.13250000  1
  C  C83  1  0.57270000  0.09610000  0.48460000  1
  C  C84  1  0.48350000  0.00690000  0.60500000  1
  C  C85  1  0.70068000  0.00492000  0.93340000  1
  O  O86  1  0.40404000  0.98682000  0.10650000  1
  O  O87  1  0.66053000  0.95667000  0.18680000  1
  O  O88  1  0.22427000  0.92153000  0.98010000  1
  O  O89  1  0.41923000  0.82483000  0.88040000  1
  O  O90  1  0.34065000  0.80597000  0.62970000  1
  O  O91  1  0.07847000  0.77573000  0.51990000  1
  O  O92  1  0.54575000  0.77241000  0.10530000  1
  O  O93  1  0.28855000  0.71231000  0.44300000  1
  O  O94  1  0.28769000  0.71145000  0.05700000  1
  O  O95  1  0.95667000  0.66053000  0.68680000  1
  O  O96  1  0.19403000  0.65935000  0.87030000  1
  O  O97  1  0.01318000  0.59596000  0.39350000  1
  O  O98  1  0.17517000  0.58077000  0.61960000  1
  O  O99  1  0.77241000  0.54575000  0.60530000  1
  O  O100  1  0.22759000  0.45425000  0.39470000  1
  O  O101  1  0.82483000  0.41923000  0.38040000  1
  O  O102  1  0.98682000  0.40404000  0.60650000  1
  O  O103  1  0.80597000  0.34065000  0.12970000  1
  O  O104  1  0.04333000  0.33947000  0.31320000  1
  O  O105  1  0.71231000  0.28855000  0.94300000  1
  O  O106  1  0.71145000  0.28769000  0.55700000  1
  O  O107  1  0.45425000  0.22759000  0.89470000  1
  O  O108  1  0.92153000  0.22427000  0.48010000  1
  O  O109  1  0.65935000  0.19403000  0.37030000  1
  O  O110  1  0.58077000  0.17517000  0.11960000  1
  O  O111  1  0.77573000  0.07847000  0.01990000  1
  O  O112  1  0.33947000  0.04333000  0.81320000  1
  O  O113  1  0.59596000  0.01318000  0.89350000  1
