# generated using pymatgen
data_Zn2H14C16N4O7
_symmetry_space_group_name_H-M   'P 1'
_cell_length_a   8.57070000
_cell_length_b   9.89850000
_cell_length_c   14.28120000
_cell_angle_alpha   104.98600000
_cell_angle_beta   102.29100000
_cell_angle_gamma   91.28600000
_symmetry_Int_Tables_number   1
_chemical_formula_structural   Zn2H14C16N4O7
_chemical_formula_sum   'Zn4 H28 C32 N8 O14'
_cell_volume   1139.68195844
_cell_formula_units_Z   2
loop_
 _symmetry_equiv_pos_site_id
 _symmetry_equiv_pos_as_xyz
  1  'x, y, z'
loop_
 _atom_site_type_symbol
 _atom_site_label
 _atom_site_symmetry_multiplicity
 _atom_site_fract_x
 _atom_site_fract_y
 _atom_site_fract_z
 _atom_site_occupancy
  Zn  Zn0  1  0.33220000  0.41613000  0.46172000  1
  Zn  Zn1  1  0.33695000  0.63936000  0.66121000  1
  Zn  Zn2  1  0.66305000  0.36064000  0.33879000  1
  Zn  Zn3  1  0.66780000  0.58387000  0.53828000  1
  H  H4  1  0.01400000  0.85380000  0.48160000  1
  H  H5  1  0.01900000  0.65820000  0.29810000  1
  H  H6  1  0.02500000  0.31810000  0.10230000  1
  H  H7  1  0.07610000  0.97080000  0.76690000  1
  H  H8  1  0.10860000  0.15160000  0.37790000  1
  H  H9  1  0.11180000  0.23530000  0.68580000  1
  H  H10  1  0.14090000  0.86100000  0.41800000  1
  H  H11  1  0.19830000  0.43570000  0.24770000  1
  H  H12  1  0.31760000  0.93760000  0.12180000  1
  H  H13  1  0.36650000  0.22990000  0.98630000  1
  H  H14  1  0.40230000  0.00120000  0.56740000  1
  H  H15  1  0.41230000  0.96110000  0.40100000  1
  H  H16  1  0.45410000  0.64160000  0.87280000  1
  H  H17  1  0.49680000  0.07170000  0.26140000  1
  H  H18  1  0.50320000  0.92830000  0.73860000  1
  H  H19  1  0.54590000  0.35840000  0.12720000  1
  H  H20  1  0.58770000  0.03890000  0.59900000  1
  H  H21  1  0.59770000  0.99880000  0.43260000  1
  H  H22  1  0.63350000  0.77010000  0.01370000  1
  H  H23  1  0.68240000  0.06240000  0.87820000  1
  H  H24  1  0.80170000  0.56430000  0.75230000  1
  H  H25  1  0.85910000  0.13900000  0.58200000  1
  H  H26  1  0.88820000  0.76470000  0.31420000  1
  H  H27  1  0.89140000  0.84840000  0.62210000  1
  H  H28  1  0.92390000  0.02920000  0.23310000  1
  H  H29  1  0.97500000  0.68190000  0.89770000  1
  H  H30  1  0.98100000  0.34180000  0.70190000  1
  H  H31  1  0.98600000  0.14620000  0.51840000  1
  C  C32  1  0.01950000  0.88880000  0.76540000  1
  C  C33  1  0.03960000  0.28240000  0.15750000  1
  C  C34  1  0.04140000  0.29440000  0.65460000  1
  C  C35  1  0.04230000  0.83960000  0.84720000  1
  C  C36  1  0.07450000  0.79760000  0.43780000  1
  C  C37  1  0.09130000  0.18620000  0.32220000  1
  C  C38  1  0.14100000  0.40190000  0.63000000  1
  C  C39  1  0.14380000  0.35190000  0.24480000  1
  C  C40  1  0.17970000  0.71050000  0.49290000  1
  C  C41  1  0.32550000  0.07120000  0.03960000  1
  C  C42  1  0.36290000  0.02380000  0.12160000  1
  C  C43  1  0.39180000  0.19540000  0.04190000  1
  C  C44  1  0.46530000  0.19580000  0.55620000  1
  C  C45  1  0.47010000  0.10540000  0.20550000  1
  C  C46  1  0.49170000  0.04300000  0.54990000  1
  C  C47  1  0.49860000  0.27290000  0.12720000  1
  C  C48  1  0.50140000  0.72710000  0.87280000  1
  C  C49  1  0.50830000  0.95700000  0.45010000  1
  C  C50  1  0.52990000  0.89460000  0.79450000  1
  C  C51  1  0.53470000  0.80420000  0.44380000  1
  C  C52  1  0.60820000  0.80460000  0.95810000  1
  C  C53  1  0.63710000  0.97620000  0.87840000  1
  C  C54  1  0.67450000  0.92880000  0.96040000  1
  C  C55  1  0.82030000  0.28950000  0.50710000  1
  C  C56  1  0.85620000  0.64810000  0.75520000  1
  C  C57  1  0.85900000  0.59810000  0.37000000  1
  C  C58  1  0.90870000  0.81380000  0.67780000  1
  C  C59  1  0.92550000  0.20240000  0.56220000  1
  C  C60  1  0.95770000  0.16040000  0.15280000  1
  C  C61  1  0.95860000  0.70560000  0.34540000  1
  C  C62  1  0.96040000  0.71760000  0.84250000  1
  C  C63  1  0.98050000  0.11120000  0.23460000  1
  N  N64  1  0.15230000  0.90400000  0.94580000  1
  N  N65  1  0.17090000  0.30460000  0.32640000  1
  N  N66  1  0.21190000  0.00310000  0.94040000  1
  N  N67  1  0.46470000  0.77100000  0.79120000  1
  N  N68  1  0.53530000  0.22900000  0.20880000  1
  N  N69  1  0.78810000  0.99690000  0.05960000  1
  N  N70  1  0.82910000  0.69540000  0.67360000  1
  N  N71  1  0.84770000  0.09600000  0.05420000  1
  O  O72  1  0.15450000  0.38450000  0.54400000  1
  O  O73  1  0.20680000  0.50810000  0.70230000  1
  O  O74  1  0.21810000  0.59870000  0.44360000  1
  O  O75  1  0.22330000  0.75870000  0.58680000  1
  O  O76  1  0.41510000  0.22720000  0.47570000  1
  O  O77  1  0.48830000  0.52910000  0.59940000  1
  O  O78  1  0.49420000  0.28090000  0.64070000  1
  O  O79  1  0.50580000  0.71910000  0.35930000  1
  O  O80  1  0.51170000  0.47090000  0.40060000  1
  O  O81  1  0.58490000  0.77280000  0.52430000  1
  O  O82  1  0.77670000  0.24130000  0.41320000  1
  O  O83  1  0.78190000  0.40130000  0.55640000  1
  O  O84  1  0.79320000  0.49190000  0.29770000  1
  O  O85  1  0.84550000  0.61550000  0.45600000  1
