# generated using pymatgen
data_CuH5C12N3O4
_symmetry_space_group_name_H-M   'P 1'
_cell_length_a   31.31090000
_cell_length_b   31.31090000
_cell_length_c   31.49765768
_cell_angle_alpha   119.80396560
_cell_angle_beta   119.80414410
_cell_angle_gamma   90.00000000
_symmetry_Int_Tables_number   1
_chemical_formula_structural   CuH5C12N3O4
_chemical_formula_sum   'Cu24 H120 C288 N72 O96'
_cell_volume   21963.76120102
_cell_formula_units_Z   24
loop_
 _symmetry_equiv_pos_site_id
 _symmetry_equiv_pos_as_xyz
  1  'x, y, z'
loop_
 _atom_site_type_symbol
 _atom_site_label
 _atom_site_symmetry_multiplicity
 _atom_site_fract_x
 _atom_site_fract_y
 _atom_site_fract_z
 _atom_site_occupancy
  Cu  Cu0  1  0.13793000  0.47316000  0.66368000  1
  Cu  Cu1  1  0.16650000  0.44979000  1.00000000  1
  Cu  Cu2  1  0.19052000  0.13793000  0.66368000  1
  Cu  Cu3  1  0.22785000  0.47775000  0.74560000  1
  Cu  Cu4  1  0.25052000  0.46148000  0.00000000  1
  Cu  Cu5  1  0.26785000  0.22785000  0.74560000  1
  Cu  Cu6  1  0.44979000  0.83350000  1.00000000  1
  Cu  Cu7  1  0.46148000  0.74948000  0.00000000  1
  Cu  Cu8  1  0.47316000  0.52575000  0.66368000  1
  Cu  Cu9  1  0.47425000  0.80948000  0.33632000  1
  Cu  Cu10  1  0.47775000  0.51775000  0.74560000  1
  Cu  Cu11  1  0.48225000  0.73215000  0.25440000  1
  Cu  Cu12  1  0.51775000  0.26785000  0.74560000  1
  Cu  Cu13  1  0.52225000  0.48225000  0.25440000  1
  Cu  Cu14  1  0.52575000  0.19052000  0.66368000  1
  Cu  Cu15  1  0.52684000  0.47425000  0.33632000  1
  Cu  Cu16  1  0.53852000  0.25052000  0.00000000  1
  Cu  Cu17  1  0.55021000  0.16650000  0.00000000  1
  Cu  Cu18  1  0.73215000  0.77215000  0.25440000  1
  Cu  Cu19  1  0.74948000  0.53852000  0.00000000  1
  Cu  Cu20  1  0.77215000  0.52225000  0.25440000  1
  Cu  Cu21  1  0.80948000  0.86207000  0.33632000  1
  Cu  Cu22  1  0.83350000  0.55021000  0.00000000  1
  Cu  Cu23  1  0.86207000  0.52684000  0.33632000  1
  H  H24  1  0.00690000  0.75410000  0.21500000  1
  H  H25  1  0.00810000  0.75310000  0.54980000  1
  H  H26  1  0.01540000  0.48820000  0.27140000  1
  H  H27  1  0.06260000  0.50520000  0.75400000  1
  H  H28  1  0.06320000  0.30500000  0.54520000  1
  H  H29  1  0.07800000  0.50470000  0.88940000  1
  H  H30  1  0.08760000  0.46090000  0.32040000  1
  H  H31  1  0.08820000  0.17800000  0.54800000  1
  H  H32  1  0.08840000  0.76580000  0.22480000  1
  H  H33  1  0.09180000  0.76720000  0.63400000  1
  H  H34  1  0.09300000  0.28500000  0.86320000  1
  H  H35  1  0.10090000  0.16960000  0.73480000  1
  H  H36  1  0.13320000  0.90820000  0.36600000  1
  H  H37  1  0.13640000  0.45900000  0.22480000  1
  H  H38  1  0.14050000  0.91240000  0.67960000  1
  H  H39  1  0.16960000  0.63390000  0.73480000  1
  H  H40  1  0.17800000  0.45980000  0.54800000  1
  H  H41  1  0.18510000  0.48390000  0.85700000  1
  H  H42  1  0.18860000  0.61530000  0.11060000  1
  H  H43  1  0.19920000  0.31730000  0.67380000  1
  H  H44  1  0.20330000  0.99190000  0.45020000  1
  H  H45  1  0.20810000  0.46090000  0.21500000  1
  H  H46  1  0.21500000  0.30420000  0.85740000  1
  H  H47  1  0.21680000  0.98460000  0.72860000  1
  H  H48  1  0.22980000  0.42180000  0.13680000  1
  H  H49  1  0.23280000  0.85950000  0.32040000  1
  H  H50  1  0.23280000  0.45780000  0.36600000  1
  H  H51  1  0.23420000  0.86360000  0.77520000  1
  H  H52  1  0.24020000  0.06320000  0.54520000  1
  H  H53  1  0.24590000  0.79190000  0.78500000  1
  H  H54  1  0.24690000  0.45830000  0.45020000  1
  H  H55  1  0.24880000  0.06260000  0.75400000  1
  H  H56  1  0.25600000  0.78320000  0.27140000  1
  H  H57  1  0.28500000  0.77020000  0.86320000  1
  H  H58  1  0.30420000  0.64240000  0.85740000  1
  H  H59  1  0.30500000  0.48200000  0.54520000  1
  H  H60  1  0.30860000  0.75120000  0.24600000  1
  H  H61  1  0.31730000  0.47460000  0.67380000  1
  H  H62  1  0.32810000  0.62690000  0.14300000  1
  H  H63  1  0.35650000  0.19920000  0.67380000  1
  H  H64  1  0.35760000  0.44680000  0.14260000  1
  H  H65  1  0.36610000  0.43480000  0.26520000  1
  H  H66  1  0.37000000  0.08820000  0.54800000  1
  H  H67  1  0.37310000  0.18510000  0.85700000  1
  H  H68  1  0.38470000  0.07800000  0.88940000  1
  H  H69  1  0.42180000  0.90700000  0.13680000  1
  H  H70  1  0.43480000  0.89910000  0.26520000  1
  H  H71  1  0.44680000  0.78500000  0.14260000  1
  H  H72  1  0.45780000  0.13320000  0.36600000  1
  H  H73  1  0.45830000  0.20330000  0.45020000  1
  H  H74  1  0.45900000  0.08840000  0.22480000  1
  H  H75  1  0.45980000  0.37000000  0.54800000  1
  H  H76  1  0.46090000  0.23280000  0.32040000  1
  H  H77  1  0.46090000  0.00690000  0.21500000  1
  H  H78  1  0.47460000  0.35650000  0.67380000  1
  H  H79  1  0.48200000  0.24020000  0.54520000  1
  H  H80  1  0.48390000  0.67190000  0.85700000  1
  H  H81  1  0.48820000  0.25600000  0.27140000  1
  H  H82  1  0.49480000  0.30860000  0.24600000  1
  H  H83  1  0.49530000  0.18860000  0.11060000  1
  H  H84  1  0.50470000  0.81140000  0.88940000  1
  H  H85  1  0.50520000  0.69140000  0.75400000  1
  H  H86  1  0.51180000  0.74400000  0.72860000  1
  H  H87  1  0.51610000  0.32810000  0.14300000  1
  H  H88  1  0.51800000  0.75980000  0.45480000  1
  H  H89  1  0.52540000  0.64350000  0.32620000  1
  H  H90  1  0.53910000  0.99310000  0.78500000  1
  H  H91  1  0.53910000  0.76720000  0.67960000  1
  H  H92  1  0.54020000  0.63000000  0.45200000  1
  H  H93  1  0.54100000  0.91160000  0.77520000  1
  H  H94  1  0.54170000  0.79670000  0.54980000  1
  H  H95  1  0.54220000  0.86680000  0.63400000  1
  H  H96  1  0.55320000  0.21500000  0.85740000  1
  H  H97  1  0.56520000  0.10090000  0.73480000  1
  H  H98  1  0.57820000  0.09300000  0.86320000  1
  H  H99  1  0.61530000  0.92200000  0.11060000  1
  H  H100  1  0.62690000  0.81490000  0.14300000  1
  H  H101  1  0.63000000  0.91180000  0.45200000  1
  H  H102  1  0.63390000  0.56520000  0.73480000  1
  H  H103  1  0.64240000  0.55320000  0.85740000  1
  H  H104  1  0.64350000  0.80080000  0.32620000  1
  H  H105  1  0.67190000  0.37310000  0.85700000  1
  H  H106  1  0.68270000  0.52540000  0.32620000  1
  H  H107  1  0.69140000  0.24880000  0.75400000  1
  H  H108  1  0.69500000  0.51800000  0.45480000  1
  H  H109  1  0.69580000  0.35760000  0.14260000  1
  H  H110  1  0.71500000  0.22980000  0.13680000  1
  H  H111  1  0.74400000  0.21680000  0.72860000  1
  H  H112  1  0.75120000  0.93740000  0.24600000  1
  H  H113  1  0.75310000  0.54170000  0.54980000  1
  H  H114  1  0.75410000  0.20810000  0.21500000  1
  H  H115  1  0.75980000  0.93680000  0.45480000  1
  H  H116  1  0.76580000  0.13640000  0.22480000  1
  H  H117  1  0.76720000  0.54220000  0.63400000  1
  H  H118  1  0.76720000  0.14050000  0.67960000  1
  H  H119  1  0.77020000  0.57820000  0.86320000  1
  H  H120  1  0.78320000  0.01540000  0.27140000  1
  H  H121  1  0.78500000  0.69580000  0.14260000  1
  H  H122  1  0.79190000  0.53910000  0.78500000  1
  H  H123  1  0.79670000  0.00810000  0.54980000  1
  H  H124  1  0.80080000  0.68270000  0.32620000  1
  H  H125  1  0.81140000  0.38470000  0.88940000  1
  H  H126  1  0.81490000  0.51610000  0.14300000  1
  H  H127  1  0.82200000  0.54020000  0.45200000  1
  H  H128  1  0.83040000  0.36610000  0.26520000  1
  H  H129  1  0.85950000  0.08760000  0.32040000  1
  H  H130  1  0.86360000  0.54100000  0.77520000  1
  H  H131  1  0.86680000  0.09180000  0.63400000  1
  H  H132  1  0.89910000  0.83040000  0.26520000  1
  H  H133  1  0.90700000  0.71500000  0.13680000  1
  H  H134  1  0.90820000  0.23280000  0.36600000  1
  H  H135  1  0.91160000  0.23420000  0.77520000  1
  H  H136  1  0.91180000  0.82200000  0.45200000  1
  H  H137  1  0.91240000  0.53910000  0.67960000  1
  H  H138  1  0.92200000  0.49530000  0.11060000  1
  H  H139  1  0.93680000  0.69500000  0.45480000  1
  H  H140  1  0.93740000  0.49480000  0.24600000  1
  H  H141  1  0.98460000  0.51180000  0.72860000  1
  H  H142  1  0.99190000  0.24690000  0.45020000  1
  H  H143  1  0.99310000  0.24590000  0.78500000  1
  C  C144  1  0.00500000  0.78800000  0.23240000  1
  C  C145  1  0.01370000  0.78420000  0.55260000  1
  C  C146  1  0.01790000  0.48370000  0.24100000  1
  C  C147  1  0.04360000  0.83790000  0.26780000  1
  C  C148  1  0.05930000  0.50300000  0.82000000  1
  C  C149  1  0.05950000  0.83140000  0.59980000  1
  C  C150  1  0.06200000  0.47120000  0.23100000  1
  C  C151  1  0.06900000  0.23540000  0.53920000  1
  C  C152  1  0.08000000  0.49920000  0.78380000  1
  C  C153  1  0.08240000  0.22600000  0.78800000  1
  C  C154  1  0.08440000  0.29060000  0.56440000  1
  C  C155  1  0.08710000  0.49630000  0.86260000  1
  C  C156  1  0.09900000  0.21410000  0.56600000  1
  C  C157  1  0.09990000  0.84770000  0.28800000  1
  C  C158  1  0.10350000  0.84150000  0.65440000  1
  C  C159  1  0.10660000  0.46760000  0.26820000  1
  C  C160  1  0.10840000  0.27390000  0.84200000  1
  C  C161  1  0.11340000  0.20500000  0.76620000  1
  C  C162  1  0.11340000  0.45930000  0.31300000  1
  C  C163  1  0.11420000  0.80180000  0.66440000  1
  C  C164  1  0.11490000  0.79830000  0.25520000  1
  C  C165  1  0.12710000  0.48620000  0.79700000  1
  C  C166  1  0.13100000  0.47690000  0.87140000  1
  C  C167  1  0.13200000  0.32020000  0.61820000  1
  C  C168  1  0.13740000  0.88580000  0.33560000  1
  C  C169  1  0.14030000  0.45690000  0.25520000  1
  C  C170  1  0.14260000  0.24450000  0.61680000  1
  C  C171  1  0.14460000  0.48200000  0.76380000  1
  C  C172  1  0.14630000  0.88660000  0.68700000  1
  C  C173  1  0.15030000  0.48260000  0.84200000  1
  C  C174  1  0.15150000  0.37590000  0.64820000  1
  C  C175  1  0.15230000  0.81190000  0.71200000  1
  C  C176  1  0.15350000  0.30530000  0.86600000  1
  C  C177  1  0.15850000  0.44910000  0.34560000  1
  C  C178  1  0.15920000  0.46950000  0.91860000  1
  C  C179  1  0.16010000  0.23540000  0.79000000  1
  C  C180  1  0.16160000  0.80060000  0.26820000  1
  C  C181  1  0.16210000  0.77580000  0.73220000  1
  C  C182  1  0.16410000  0.29820000  0.64200000  1
  C  C183  1  0.16860000  0.45970000  0.40020000  1
  C  C184  1  0.16900000  0.75980000  0.23100000  1
  C  C185  1  0.17380000  0.35580000  0.91660000  1
  C  C186  1  0.18050000  0.22270000  0.65140000  1
  C  C187  1  0.18140000  0.28390000  0.83960000  1
  C  C188  1  0.18710000  0.89650000  0.34560000  1
  C  C189  1  0.18800000  0.21930000  0.76080000  1
  C  C190  1  0.18810000  0.44030000  0.28800000  1
  C  C191  1  0.19820000  0.44980000  0.33560000  1
  C  C192  1  0.19940000  0.89340000  0.73180000  1
  C  C193  1  0.19960000  0.85370000  0.31300000  1
  C  C194  1  0.20170000  0.85970000  0.74480000  1
  C  C195  1  0.20500000  0.65280000  0.76620000  1
  C  C196  1  0.21200000  0.77260000  0.76760000  1
  C  C197  1  0.21410000  0.46700000  0.56600000  1
  C  C198  1  0.21580000  0.46110000  0.44740000  1
  C  C199  1  0.21930000  0.57280000  0.76080000  1
  C  C200  1  0.22270000  0.47090000  0.65140000  1
  C  C201  1  0.22310000  0.75730000  0.24100000  1
  C  C202  1  0.22420000  0.42990000  0.26780000  1
  C  C203  1  0.22450000  0.63370000  0.13740000  1
  C  C204  1  0.22600000  0.70560000  0.78800000  1
  C  C205  1  0.22740000  0.44440000  0.23240000  1
  C  C206  1  0.23160000  0.94050000  0.40020000  1
  C  C207  1  0.23160000  0.98630000  0.44740000  1
  C  C208  1  0.23540000  0.47020000  0.53920000  1
  C  C209  1  0.23540000  0.62990000  0.79000000  1
  C  C210  1  0.23930000  0.68300000  0.18000000  1
  C  C211  1  0.24020000  0.93800000  0.76900000  1
  C  C212  1  0.24060000  0.55090000  0.08140000  1
  C  C213  1  0.24270000  0.98210000  0.75900000  1
  C  C214  1  0.24450000  0.47420000  0.61680000  1
  C  C215  1  0.25720000  0.43920000  0.08340000  1
  C  C216  1  0.25960000  0.60550000  0.12860000  1
  C  C217  1  0.26640000  0.43190000  0.15800000  1
  C  C218  1  0.27230000  0.15150000  0.64820000  1
  C  C219  1  0.27380000  0.08440000  0.56440000  1
  C  C220  1  0.27390000  0.73360000  0.84200000  1
  C  C221  1  0.28180000  0.14460000  0.76380000  1
  C  C222  1  0.28390000  0.65820000  0.83960000  1
  C  C223  1  0.28460000  0.08000000  0.78380000  1
  C  C224  1  0.28750000  0.43930000  0.13400000  1
  C  C225  1  0.29060000  0.48000000  0.56440000  1
  C  C226  1  0.29440000  0.43800000  0.21200000  1
  C  C227  1  0.29620000  0.71540000  0.21620000  1
  C  C228  1  0.29800000  0.13200000  0.61820000  1
  C  C229  1  0.29820000  0.47790000  0.64200000  1
  C  C230  1  0.30380000  0.06900000  0.53920000  1
  C  C231  1  0.30530000  0.71250000  0.86600000  1
  C  C232  1  0.30830000  0.64060000  0.15800000  1
  C  C233  1  0.31080000  0.12710000  0.79700000  1
  C  C234  1  0.31700000  0.05930000  0.82000000  1
  C  C235  1  0.32020000  0.48620000  0.61820000  1
  C  C236  1  0.33010000  0.68920000  0.20300000  1
  C  C237  1  0.34180000  0.44430000  0.16040000  1
  C  C238  1  0.34380000  0.16410000  0.64200000  1
  C  C239  1  0.34720000  0.43880000  0.23380000  1
  C  C240  1  0.35190000  0.09900000  0.56600000  1
  C  C241  1  0.35580000  0.74280000  0.91660000  1
  C  C242  1  0.35940000  0.15030000  0.84200000  1
  C  C243  1  0.36630000  0.08710000  0.86260000  1
  C  C244  1  0.37010000  0.44540000  0.21000000  1
  C  C245  1  0.37230000  0.14260000  0.61680000  1
  C  C246  1  0.37590000  0.49670000  0.64820000  1
  C  C247  1  0.38080000  0.71820000  0.23620000  1
  C  C248  1  0.39450000  0.13100000  0.87140000  1
  C  C249  1  0.42720000  0.45850000  0.23920000  1
  C  C250  1  0.42870000  0.18050000  0.65140000  1
  C  C251  1  0.42990000  0.04360000  0.26780000  1
  C  C252  1  0.43190000  0.89160000  0.15800000  1
  C  C253  1  0.43800000  0.91760000  0.21200000  1
  C  C254  1  0.43880000  0.88660000  0.23380000  1
  C  C255  1  0.43920000  0.82620000  0.08340000  1
  C  C256  1  0.43930000  0.84650000  0.13400000  1
  C  C257  1  0.44030000  0.09990000  0.28800000  1
  C  C258  1  0.44430000  0.81860000  0.16040000  1
  C  C259  1  0.44440000  0.00500000  0.23240000  1
  C  C260  1  0.44540000  0.83990000  0.21000000  1
  C  C261  1  0.44910000  0.18710000  0.34560000  1
  C  C262  1  0.44910000  0.15920000  0.91860000  1
  C  C263  1  0.44980000  0.13740000  0.33560000  1
  C  C264  1  0.45690000  0.11490000  0.25520000  1
  C  C265  1  0.45850000  0.81200000  0.23920000  1
  C  C266  1  0.45930000  0.19960000  0.31300000  1
  C  C267  1  0.45970000  0.23160000  0.40020000  1
  C  C268  1  0.46110000  0.23160000  0.44740000  1
  C  C269  1  0.46700000  0.35190000  0.56600000  1
  C  C270  1  0.46760000  0.16160000  0.26820000  1
  C  C271  1  0.46950000  0.75940000  0.91860000  1
  C  C272  1  0.47020000  0.30380000  0.53920000  1
  C  C273  1  0.47090000  0.42870000  0.65140000  1
  C  C274  1  0.47120000  0.16900000  0.23100000  1
  C  C275  1  0.47420000  0.37230000  0.61680000  1
  C  C276  1  0.47690000  0.74040000  0.87140000  1
  C  C277  1  0.47790000  0.34380000  0.64200000  1
  C  C278  1  0.48000000  0.27380000  0.56440000  1
  C  C279  1  0.48200000  0.61920000  0.76380000  1
  C  C280  1  0.48260000  0.69170000  0.84200000  1
  C  C281  1  0.48370000  0.22310000  0.24100000  1
  C  C282  1  0.48620000  0.66990000  0.79700000  1
  C  C283  1  0.48620000  0.29800000  0.61820000  1
  C  C284  1  0.49630000  0.77550000  0.86260000  1
  C  C285  1  0.49670000  0.27230000  0.64820000  1
  C  C286  1  0.49700000  0.23930000  0.18000000  1
  C  C287  1  0.49920000  0.70380000  0.78380000  1
  C  C288  1  0.50080000  0.29620000  0.21620000  1
  C  C289  1  0.50300000  0.76070000  0.82000000  1
  C  C290  1  0.50330000  0.72770000  0.35180000  1
  C  C291  1  0.50370000  0.22450000  0.13740000  1
  C  C292  1  0.51380000  0.70200000  0.38180000  1
  C  C293  1  0.51380000  0.33010000  0.20300000  1
  C  C294  1  0.51630000  0.77690000  0.75900000  1
  C  C295  1  0.51740000  0.30830000  0.15800000  1
  C  C296  1  0.51800000  0.38080000  0.23620000  1
  C  C297  1  0.52000000  0.72620000  0.43560000  1
  C  C298  1  0.52210000  0.65620000  0.35800000  1
  C  C299  1  0.52310000  0.25960000  0.12860000  1
  C  C300  1  0.52580000  0.62770000  0.38320000  1
  C  C301  1  0.52880000  0.83100000  0.76900000  1
  C  C302  1  0.52910000  0.57130000  0.34860000  1
  C  C303  1  0.52980000  0.69620000  0.46080000  1
  C  C304  1  0.53050000  0.24060000  0.08140000  1
  C  C305  1  0.53240000  0.83840000  0.73180000  1
  C  C306  1  0.53300000  0.64810000  0.43400000  1
  C  C307  1  0.53890000  0.76840000  0.55260000  1
  C  C308  1  0.54030000  0.76840000  0.59980000  1
  C  C309  1  0.54070000  0.80040000  0.68700000  1
  C  C310  1  0.54150000  0.18800000  0.76080000  1
  C  C311  1  0.54310000  0.88510000  0.74480000  1
  C  C312  1  0.55020000  0.86260000  0.66440000  1
  C  C313  1  0.55090000  0.84080000  0.08140000  1
  C  C314  1  0.55090000  0.81290000  0.65440000  1
  C  C315  1  0.55460000  0.16010000  0.79000000  1
  C  C316  1  0.55560000  0.99500000  0.76760000  1
  C  C317  1  0.55570000  0.18140000  0.83960000  1
  C  C318  1  0.55970000  0.90010000  0.71200000  1
  C  C319  1  0.56070000  0.15350000  0.86600000  1
  C  C320  1  0.56080000  0.17380000  0.91660000  1
  C  C321  1  0.56120000  0.11340000  0.76620000  1
  C  C322  1  0.56200000  0.08240000  0.78800000  1
  C  C323  1  0.56810000  0.10840000  0.84200000  1
  C  C324  1  0.57010000  0.95640000  0.73220000  1
  C  C325  1  0.57130000  0.81950000  0.34860000  1
  C  C326  1  0.57280000  0.54150000  0.76080000  1
  C  C327  1  0.60550000  0.86900000  0.12860000  1
  C  C328  1  0.61920000  0.28180000  0.76380000  1
  C  C329  1  0.62410000  0.50330000  0.35180000  1
  C  C330  1  0.62770000  0.85740000  0.38320000  1
  C  C331  1  0.62990000  0.55460000  0.79000000  1
  C  C332  1  0.63370000  0.91290000  0.13740000  1
  C  C333  1  0.64060000  0.84970000  0.15800000  1
  C  C334  1  0.64420000  0.25720000  0.08340000  1
  C  C335  1  0.64810000  0.90100000  0.43400000  1
  C  C336  1  0.65280000  0.56120000  0.76620000  1
  C  C337  1  0.65620000  0.83590000  0.35800000  1
  C  C338  1  0.65820000  0.55570000  0.83960000  1
  C  C339  1  0.66990000  0.31080000  0.79700000  1
  C  C340  1  0.67980000  0.51380000  0.38180000  1
  C  C341  1  0.68300000  0.94070000  0.18000000  1
  C  C342  1  0.68920000  0.87290000  0.20300000  1
  C  C343  1  0.69170000  0.35940000  0.84200000  1
  C  C344  1  0.69470000  0.28750000  0.13400000  1
  C  C345  1  0.69620000  0.93100000  0.46080000  1
  C  C346  1  0.70180000  0.52210000  0.35800000  1
  C  C347  1  0.70200000  0.86800000  0.38180000  1
  C  C348  1  0.70380000  0.28460000  0.78380000  1
  C  C349  1  0.70560000  0.56200000  0.78800000  1
  C  C350  1  0.70940000  0.52000000  0.43560000  1
  C  C351  1  0.71250000  0.56070000  0.86600000  1
  C  C352  1  0.71540000  0.92000000  0.21620000  1
  C  C353  1  0.71610000  0.34180000  0.16040000  1
  C  C354  1  0.71820000  0.85540000  0.23620000  1
  C  C355  1  0.72610000  0.26640000  0.15800000  1
  C  C356  1  0.72620000  0.91560000  0.43560000  1
  C  C357  1  0.72770000  0.84850000  0.35180000  1
  C  C358  1  0.73360000  0.56810000  0.84200000  1
  C  C359  1  0.74040000  0.39450000  0.87140000  1
  C  C360  1  0.74280000  0.56080000  0.91660000  1
  C  C361  1  0.75550000  0.52580000  0.38320000  1
  C  C362  1  0.75730000  0.01790000  0.24100000  1
  C  C363  1  0.75940000  0.44910000  0.91860000  1
  C  C364  1  0.75980000  0.06200000  0.23100000  1
  C  C365  1  0.76070000  0.31700000  0.82000000  1
  C  C366  1  0.76460000  0.37010000  0.21000000  1
  C  C367  1  0.76460000  0.52980000  0.46080000  1
  C  C368  1  0.76840000  0.01370000  0.55260000  1
  C  C369  1  0.76840000  0.05950000  0.59980000  1
  C  C370  1  0.77260000  0.55560000  0.76760000  1
  C  C371  1  0.77400000  0.29440000  0.21200000  1
  C  C372  1  0.77550000  0.36630000  0.86260000  1
  C  C373  1  0.77580000  0.57010000  0.73220000  1
  C  C374  1  0.77690000  0.24270000  0.75900000  1
  C  C375  1  0.77730000  0.52910000  0.34860000  1
  C  C376  1  0.78070000  0.42720000  0.23920000  1
  C  C377  1  0.78420000  0.53890000  0.55260000  1
  C  C378  1  0.78590000  0.53300000  0.43400000  1
  C  C379  1  0.78800000  0.22740000  0.23240000  1
  C  C380  1  0.79500000  0.34720000  0.23380000  1
  C  C381  1  0.79830000  0.14030000  0.25520000  1
  C  C382  1  0.80040000  0.14630000  0.68700000  1
  C  C383  1  0.80060000  0.10660000  0.26820000  1
  C  C384  1  0.80180000  0.55020000  0.66440000  1
  C  C385  1  0.81190000  0.55970000  0.71200000  1
  C  C386  1  0.81200000  0.78070000  0.23920000  1
  C  C387  1  0.81290000  0.10350000  0.65440000  1
  C  C388  1  0.81860000  0.71610000  0.16040000  1
  C  C389  1  0.81950000  0.77730000  0.34860000  1
  C  C390  1  0.82620000  0.64420000  0.08340000  1
  C  C391  1  0.83100000  0.24020000  0.76900000  1
  C  C392  1  0.83140000  0.54030000  0.59980000  1
  C  C393  1  0.83590000  0.70180000  0.35800000  1
  C  C394  1  0.83790000  0.22420000  0.26780000  1
  C  C395  1  0.83840000  0.19940000  0.73180000  1
  C  C396  1  0.83990000  0.76460000  0.21000000  1
  C  C397  1  0.84080000  0.53050000  0.08140000  1
  C  C398  1  0.84150000  0.55090000  0.65440000  1
  C  C399  1  0.84650000  0.69470000  0.13400000  1
  C  C400  1  0.84770000  0.18810000  0.28800000  1
  C  C401  1  0.84850000  0.62410000  0.35180000  1
  C  C402  1  0.84970000  0.51740000  0.15800000  1
  C  C403  1  0.85370000  0.11340000  0.31300000  1
  C  C404  1  0.85540000  0.51800000  0.23620000  1
  C  C405  1  0.85740000  0.75550000  0.38320000  1
  C  C406  1  0.85970000  0.54310000  0.74480000  1
  C  C407  1  0.86260000  0.11420000  0.66440000  1
  C  C408  1  0.86800000  0.67980000  0.38180000  1
  C  C409  1  0.86900000  0.52310000  0.12860000  1
  C  C410  1  0.87290000  0.51380000  0.20300000  1
  C  C411  1  0.88510000  0.20170000  0.74480000  1
  C  C412  1  0.88580000  0.19820000  0.33560000  1
  C  C413  1  0.88660000  0.54070000  0.68700000  1
  C  C414  1  0.88660000  0.79500000  0.23380000  1
  C  C415  1  0.89160000  0.72610000  0.15800000  1
  C  C416  1  0.89340000  0.53240000  0.73180000  1
  C  C417  1  0.89650000  0.15850000  0.34560000  1
  C  C418  1  0.90010000  0.15230000  0.71200000  1
  C  C419  1  0.90100000  0.78590000  0.43400000  1
  C  C420  1  0.91290000  0.50370000  0.13740000  1
  C  C421  1  0.91560000  0.70940000  0.43560000  1
  C  C422  1  0.91760000  0.77400000  0.21200000  1
  C  C423  1  0.92000000  0.50080000  0.21620000  1
  C  C424  1  0.93100000  0.76460000  0.46080000  1
  C  C425  1  0.93800000  0.52880000  0.76900000  1
  C  C426  1  0.94050000  0.16860000  0.40020000  1
  C  C427  1  0.94070000  0.49700000  0.18000000  1
  C  C428  1  0.95640000  0.16210000  0.73220000  1
  C  C429  1  0.98210000  0.51630000  0.75900000  1
  C  C430  1  0.98630000  0.21580000  0.44740000  1
  C  C431  1  0.99500000  0.21200000  0.76760000  1
  N  N432  1  0.00690000  0.53890000  0.84760000  1
  N  N433  1  0.00970000  0.83930000  0.52620000  1
  N  N434  1  0.01360000  0.51390000  0.80300000  1
  N  N435  1  0.01540000  0.20560000  0.48200000  1
  N  N436  1  0.01950000  0.14230000  0.72640000  1
  N  N437  1  0.03060000  0.87250000  0.28860000  1
  N  N438  1  0.03540000  0.19460000  0.76800000  1
  N  N439  1  0.04010000  0.45720000  0.17720000  1
  N  N440  1  0.05010000  0.85830000  0.58460000  1
  N  N441  1  0.12750000  0.74200000  0.71140000  1
  N  N442  1  0.13710000  0.72000000  0.17720000  1
  N  N443  1  0.14170000  0.46550000  0.41540000  1
  N  N444  1  0.14230000  0.70690000  0.72640000  1
  N  N445  1  0.15930000  0.69130000  0.15240000  1
  N  N446  1  0.16070000  0.48350000  0.47380000  1
  N  N447  1  0.19460000  0.73260000  0.76800000  1
  N  N448  1  0.20560000  0.46660000  0.48200000  1
  N  N449  1  0.21060000  0.71090000  0.19700000  1
  N  N450  1  0.25800000  0.41610000  0.28860000  1
  N  N451  1  0.26740000  0.42660000  0.23200000  1
  N  N452  1  0.27370000  0.94990000  0.41540000  1
  N  N453  1  0.27640000  0.01540000  0.48200000  1
  N  N454  1  0.28000000  0.95990000  0.82280000  1
  N  N455  1  0.28910000  0.01360000  0.80300000  1
  N  N456  1  0.29310000  0.41590000  0.27360000  1
  N  N457  1  0.30870000  0.00690000  0.84760000  1
  N  N458  1  0.31310000  0.99030000  0.47380000  1
  N  N459  1  0.41590000  0.98050000  0.27360000  1
  N  N460  1  0.41610000  0.03060000  0.28860000  1
  N  N461  1  0.42660000  0.96460000  0.23200000  1
  N  N462  1  0.45720000  0.13710000  0.17720000  1
  N  N463  1  0.46110000  0.15930000  0.15240000  1
  N  N464  1  0.46550000  0.27370000  0.41540000  1
  N  N465  1  0.46660000  0.27640000  0.48200000  1
  N  N466  1  0.48350000  0.31310000  0.47380000  1
  N  N467  1  0.48610000  0.21060000  0.19700000  1
  N  N468  1  0.51390000  0.78940000  0.80300000  1
  N  N469  1  0.51650000  0.68690000  0.52620000  1
  N  N470  1  0.53340000  0.72360000  0.51800000  1
  N  N471  1  0.53450000  0.72630000  0.58460000  1
  N  N472  1  0.53890000  0.84070000  0.84760000  1
  N  N473  1  0.54280000  0.86290000  0.82280000  1
  N  N474  1  0.57340000  0.03540000  0.76800000  1
  N  N475  1  0.58390000  0.96940000  0.71140000  1
  N  N476  1  0.58410000  0.01950000  0.72640000  1
  N  N477  1  0.68690000  0.00970000  0.52620000  1
  N  N478  1  0.69130000  0.99310000  0.15240000  1
  N  N479  1  0.70690000  0.58410000  0.72640000  1
  N  N480  1  0.71090000  0.98640000  0.19700000  1
  N  N481  1  0.72000000  0.04010000  0.17720000  1
  N  N482  1  0.72360000  0.98460000  0.51800000  1
  N  N483  1  0.72630000  0.05010000  0.58460000  1
  N  N484  1  0.73260000  0.57340000  0.76800000  1
  N  N485  1  0.74200000  0.58390000  0.71140000  1
  N  N486  1  0.78940000  0.28910000  0.80300000  1
  N  N487  1  0.79440000  0.53340000  0.51800000  1
  N  N488  1  0.80540000  0.26740000  0.23200000  1
  N  N489  1  0.83930000  0.51650000  0.52620000  1
  N  N490  1  0.84070000  0.30870000  0.84760000  1
  N  N491  1  0.85770000  0.29310000  0.27360000  1
  N  N492  1  0.85830000  0.53450000  0.58460000  1
  N  N493  1  0.86290000  0.28000000  0.82280000  1
  N  N494  1  0.87250000  0.25800000  0.28860000  1
  N  N495  1  0.94990000  0.14170000  0.41540000  1
  N  N496  1  0.95990000  0.54280000  0.82280000  1
  N  N497  1  0.96460000  0.80540000  0.23200000  1
  N  N498  1  0.96940000  0.12750000  0.71140000  1
  N  N499  1  0.98050000  0.85770000  0.27360000  1
  N  N500  1  0.98460000  0.79440000  0.51800000  1
  N  N501  1  0.98640000  0.48610000  0.19700000  1
  N  N502  1  0.99030000  0.16070000  0.47380000  1
  N  N503  1  0.99310000  0.46110000  0.15240000  1
  O  O504  1  0.11794000  0.48293000  0.71606000  1
  O  O505  1  0.11833000  0.39729000  0.62506000  1
  O  O506  1  0.13595000  0.46486000  0.94036000  1
  O  O507  1  0.14810000  0.37660000  0.93820000  1
  O  O508  1  0.16040000  0.17292000  0.62440000  1
  O  O509  1  0.16411000  0.16948000  0.71316000  1
  O  O510  1  0.16948000  0.54905000  0.71316000  1
  O  O511  1  0.17292000  0.46400000  0.62440000  1
  O  O512  1  0.19351000  0.47951000  0.78038000  1
  O  O513  1  0.19559000  0.52450000  0.05964000  1
  O  O514  1  0.19809000  0.40355000  0.69530000  1
  O  O515  1  0.20743000  0.47308000  0.93946000  1
  O  O516  1  0.20990000  0.43840000  0.06180000  1
  O  O517  1  0.22169000  0.38607000  0.93934000  1
  O  O518  1  0.22182000  0.24968000  0.69684000  1
  O  O519  1  0.22777000  0.11833000  0.62506000  1
  O  O520  1  0.23268000  0.24518000  0.78664000  1
  O  O521  1  0.23313000  0.11794000  0.71606000  1
  O  O522  1  0.24518000  0.55396000  0.78664000  1
  O  O523  1  0.24968000  0.47502000  0.69684000  1
  O  O524  1  0.26797000  0.53362000  0.06054000  1
  O  O525  1  0.28235000  0.44673000  0.06066000  1
  O  O526  1  0.29175000  0.19809000  0.69530000  1
  O  O527  1  0.30087000  0.19351000  0.78038000  1
  O  O528  1  0.37660000  0.79010000  0.93820000  1
  O  O529  1  0.38607000  0.71765000  0.93934000  1
  O  O530  1  0.39729000  0.50673000  0.62506000  1
  O  O531  1  0.40188000  0.76687000  0.28394000  1
  O  O532  1  0.40355000  0.49721000  0.69530000  1
  O  O533  1  0.41313000  0.69913000  0.21962000  1
  O  O534  1  0.43840000  0.85190000  0.06180000  1
  O  O535  1  0.44604000  0.45854000  0.21336000  1
  O  O536  1  0.44673000  0.77831000  0.06066000  1
  O  O537  1  0.44716000  0.22182000  0.69684000  1
  O  O538  1  0.45095000  0.45632000  0.28684000  1
  O  O539  1  0.45148000  0.16040000  0.62440000  1
  O  O540  1  0.45632000  0.83589000  0.28684000  1
  O  O541  1  0.45854000  0.76732000  0.21336000  1
  O  O542  1  0.46400000  0.45148000  0.62440000  1
  O  O543  1  0.46486000  0.80441000  0.94036000  1
  O  O544  1  0.46638000  0.20743000  0.93946000  1
  O  O545  1  0.47308000  0.73203000  0.93946000  1
  O  O546  1  0.47502000  0.44716000  0.69684000  1
  O  O547  1  0.47550000  0.13595000  0.94036000  1
  O  O548  1  0.47951000  0.58687000  0.78038000  1
  O  O549  1  0.48293000  0.59812000  0.71606000  1
  O  O550  1  0.49327000  0.77223000  0.37494000  1
  O  O551  1  0.49721000  0.29175000  0.69530000  1
  O  O552  1  0.50279000  0.70825000  0.30470000  1
  O  O553  1  0.50673000  0.22777000  0.62506000  1
  O  O554  1  0.51707000  0.40188000  0.28394000  1
  O  O555  1  0.52049000  0.41313000  0.21962000  1
  O  O556  1  0.52450000  0.86405000  0.05964000  1
  O  O557  1  0.52498000  0.55284000  0.30316000  1
  O  O558  1  0.52692000  0.26797000  0.06054000  1
  O  O559  1  0.53362000  0.79257000  0.06054000  1
  O  O560  1  0.53514000  0.19559000  0.05964000  1
  O  O561  1  0.53600000  0.54852000  0.37560000  1
  O  O562  1  0.54146000  0.23268000  0.78664000  1
  O  O563  1  0.54368000  0.16411000  0.71316000  1
  O  O564  1  0.54852000  0.83960000  0.37560000  1
  O  O565  1  0.54905000  0.54368000  0.71316000  1
  O  O566  1  0.55284000  0.77818000  0.30316000  1
  O  O567  1  0.55327000  0.22169000  0.93934000  1
  O  O568  1  0.55396000  0.54146000  0.78664000  1
  O  O569  1  0.56160000  0.14810000  0.93820000  1
  O  O570  1  0.58687000  0.30087000  0.78038000  1
  O  O571  1  0.59645000  0.50279000  0.30470000  1
  O  O572  1  0.59812000  0.23313000  0.71606000  1
  O  O573  1  0.60271000  0.49327000  0.37494000  1
  O  O574  1  0.61393000  0.28235000  0.06066000  1
  O  O575  1  0.62340000  0.20990000  0.06180000  1
  O  O576  1  0.69913000  0.80649000  0.21962000  1
  O  O577  1  0.70825000  0.80191000  0.30470000  1
  O  O578  1  0.71765000  0.55327000  0.93934000  1
  O  O579  1  0.73203000  0.46638000  0.93946000  1
  O  O580  1  0.75032000  0.52498000  0.30316000  1
  O  O581  1  0.75482000  0.44604000  0.21336000  1
  O  O582  1  0.76687000  0.88206000  0.28394000  1
  O  O583  1  0.76732000  0.75482000  0.21336000  1
  O  O584  1  0.77223000  0.88167000  0.37494000  1
  O  O585  1  0.77818000  0.75032000  0.30316000  1
  O  O586  1  0.77831000  0.61393000  0.06066000  1
  O  O587  1  0.79010000  0.56160000  0.93820000  1
  O  O588  1  0.79257000  0.52692000  0.06054000  1
  O  O589  1  0.80191000  0.59645000  0.30470000  1
  O  O590  1  0.80441000  0.47550000  0.94036000  1
  O  O591  1  0.80649000  0.52049000  0.21962000  1
  O  O592  1  0.82708000  0.53600000  0.37560000  1
  O  O593  1  0.83052000  0.45095000  0.28684000  1
  O  O594  1  0.83589000  0.83052000  0.28684000  1
  O  O595  1  0.83960000  0.82708000  0.37560000  1
  O  O596  1  0.85190000  0.62340000  0.06180000  1
  O  O597  1  0.86405000  0.53514000  0.05964000  1
  O  O598  1  0.88167000  0.60271000  0.37494000  1
  O  O599  1  0.88206000  0.51707000  0.28394000  1
