# generated using pymatgen
data_Zn2H9C17N2O9
_symmetry_space_group_name_H-M   'P 1'
_cell_length_a   13.95170000
_cell_length_b   16.54740000
_cell_length_c   16.54740000
_cell_angle_alpha   103.39500000
_cell_angle_beta   110.00900000
_cell_angle_gamma   110.00900000
_symmetry_Int_Tables_number   1
_chemical_formula_structural   Zn2H9C17N2O9
_chemical_formula_sum   'Zn8 H36 C68 N8 O36'
_cell_volume   3098.67622439
_cell_formula_units_Z   4
loop_
 _symmetry_equiv_pos_site_id
 _symmetry_equiv_pos_as_xyz
  1  'x, y, z'
loop_
 _atom_site_type_symbol
 _atom_site_label
 _atom_site_symmetry_multiplicity
 _atom_site_fract_x
 _atom_site_fract_y
 _atom_site_fract_z
 _atom_site_occupancy
  Zn  Zn0  1  0.03922000  0.27862000  0.35932000  1
  Zn  Zn1  1  0.21225000  0.79427000  0.65245000  1
  Zn  Zn2  1  0.28775000  0.34755000  0.20573000  1
  Zn  Zn3  1  0.46078000  0.64068000  0.72138000  1
  Zn  Zn4  1  0.53922000  0.35932000  0.27862000  1
  Zn  Zn5  1  0.71225000  0.65245000  0.79427000  1
  Zn  Zn6  1  0.78775000  0.20573000  0.34755000  1
  Zn  Zn7  1  0.96078000  0.72138000  0.64068000  1
  H  H8  1  0.00710000  0.13090000  0.15750000  1
  H  H9  1  0.02110000  0.87480000  0.11920000  1
  H  H10  1  0.05540000  0.34900000  0.15540000  1
  H  H11  1  0.13340000  0.05720000  0.03640000  1
  H  H12  1  0.13540000  0.74180000  0.96280000  1
  H  H13  1  0.13690000  0.44680000  0.51800000  1
  H  H14  1  0.15440000  0.11610000  0.50590000  1
  H  H15  1  0.15690000  0.21710000  0.00090000  1
  H  H16  1  0.22190000  0.98290000  0.60670000  1
  H  H17  1  0.27810000  0.39330000  0.01710000  1
  H  H18  1  0.34310000  0.99910000  0.78290000  1
  H  H19  1  0.34560000  0.49410000  0.88390000  1
  H  H20  1  0.36310000  0.48200000  0.55320000  1
  H  H21  1  0.36460000  0.03720000  0.25820000  1
  H  H22  1  0.36660000  0.96360000  0.94280000  1
  H  H23  1  0.44460000  0.84460000  0.65100000  1
  H  H24  1  0.47890000  0.88080000  0.12520000  1
  H  H25  1  0.49290000  0.84250000  0.86910000  1
  H  H26  1  0.50710000  0.15750000  0.13090000  1
  H  H27  1  0.52110000  0.11920000  0.87480000  1
  H  H28  1  0.55540000  0.15540000  0.34900000  1
  H  H29  1  0.63340000  0.03640000  0.05720000  1
  H  H30  1  0.63540000  0.96280000  0.74180000  1
  H  H31  1  0.63690000  0.51800000  0.44680000  1
  H  H32  1  0.65440000  0.50590000  0.11610000  1
  H  H33  1  0.65690000  0.00090000  0.21710000  1
  H  H34  1  0.72190000  0.60670000  0.98290000  1
  H  H35  1  0.77810000  0.01710000  0.39330000  1
  H  H36  1  0.84310000  0.78290000  0.99910000  1
  H  H37  1  0.84560000  0.88390000  0.49410000  1
  H  H38  1  0.86310000  0.55320000  0.48200000  1
  H  H39  1  0.86460000  0.25820000  0.03720000  1
  H  H40  1  0.86660000  0.94280000  0.96360000  1
  H  H41  1  0.94460000  0.65100000  0.84460000  1
  H  H42  1  0.97890000  0.12520000  0.88080000  1
  H  H43  1  0.99290000  0.86910000  0.84250000  1
  C  C44  1  0.00790000  0.83070000  0.06330000  1
  C  C45  1  0.01810000  0.93770000  0.53970000  1
  C  C46  1  0.03180000  0.59560000  0.55460000  1
  C  C47  1  0.03650000  0.87150000  0.58270000  1
  C  C48  1  0.03830000  0.30180000  0.09980000  1
  C  C49  1  0.07470000  0.75110000  0.96970000  1
  C  C50  1  0.08000000  0.46770000  0.50910000  1
  C  C51  1  0.09080000  0.06810000  0.50390000  1
  C  C52  1  0.09450000  0.81800000  0.04960000  1
  C  C53  1  0.09550000  0.22420000  0.00880000  1
  C  C54  1  0.10880000  0.00970000  0.54250000  1
  C  C55  1  0.11530000  0.56170000  0.56170000  1
  C  C56  1  0.13120000  0.96180000  0.93600000  1
  C  C57  1  0.15320000  0.85260000  0.81580000  1
  C  C58  1  0.18100000  0.03890000  0.01510000  1
  C  C59  1  0.19930000  0.93290000  0.90710000  1
  C  C60  1  0.24230000  0.62190000  0.62910000  1
  C  C61  1  0.25770000  0.37090000  0.37810000  1
  C  C62  1  0.30070000  0.09290000  0.06710000  1
  C  C63  1  0.31900000  0.98490000  0.96110000  1
  C  C64  1  0.34680000  0.18420000  0.14740000  1
  C  C65  1  0.36880000  0.06400000  0.03820000  1
  C  C66  1  0.38470000  0.43830000  0.43830000  1
  C  C67  1  0.39120000  0.45750000  0.99030000  1
  C  C68  1  0.40450000  0.99120000  0.77580000  1
  C  C69  1  0.40550000  0.95040000  0.18200000  1
  C  C70  1  0.40920000  0.49610000  0.93190000  1
  C  C71  1  0.42000000  0.49090000  0.53230000  1
  C  C72  1  0.42530000  0.03030000  0.24890000  1
  C  C73  1  0.46170000  0.90020000  0.69820000  1
  C  C74  1  0.46350000  0.41730000  0.12850000  1
  C  C75  1  0.46820000  0.44540000  0.40440000  1
  C  C76  1  0.48190000  0.46030000  0.06230000  1
  C  C77  1  0.49210000  0.93670000  0.16930000  1
  C  C78  1  0.50790000  0.06330000  0.83070000  1
  C  C79  1  0.51810000  0.53970000  0.93770000  1
  C  C80  1  0.53180000  0.55460000  0.59560000  1
  C  C81  1  0.53650000  0.58270000  0.87150000  1
  C  C82  1  0.53830000  0.09980000  0.30180000  1
  C  C83  1  0.57470000  0.96970000  0.75110000  1
  C  C84  1  0.58000000  0.50910000  0.46770000  1
  C  C85  1  0.59080000  0.50390000  0.06810000  1
  C  C86  1  0.59450000  0.04960000  0.81800000  1
  C  C87  1  0.59550000  0.00880000  0.22420000  1
  C  C88  1  0.60880000  0.54250000  0.00970000  1
  C  C89  1  0.61530000  0.56170000  0.56170000  1
  C  C90  1  0.63120000  0.93600000  0.96180000  1
  C  C91  1  0.65320000  0.81580000  0.85260000  1
  C  C92  1  0.68100000  0.01510000  0.03890000  1
  C  C93  1  0.69930000  0.90710000  0.93290000  1
  C  C94  1  0.74230000  0.62910000  0.62190000  1
  C  C95  1  0.75770000  0.37810000  0.37090000  1
  C  C96  1  0.80070000  0.06710000  0.09290000  1
  C  C97  1  0.81900000  0.96110000  0.98490000  1
  C  C98  1  0.84680000  0.14740000  0.18420000  1
  C  C99  1  0.86880000  0.03820000  0.06400000  1
  C  C100  1  0.88470000  0.43830000  0.43830000  1
  C  C101  1  0.89120000  0.99030000  0.45750000  1
  C  C102  1  0.90450000  0.77580000  0.99120000  1
  C  C103  1  0.90550000  0.18200000  0.95040000  1
  C  C104  1  0.90920000  0.93190000  0.49610000  1
  C  C105  1  0.92000000  0.53230000  0.49090000  1
  C  C106  1  0.92530000  0.24890000  0.03030000  1
  C  C107  1  0.96170000  0.69820000  0.90020000  1
  C  C108  1  0.96350000  0.12850000  0.41730000  1
  C  C109  1  0.96820000  0.40440000  0.44540000  1
  C  C110  1  0.98190000  0.06230000  0.46030000  1
  C  C111  1  0.99210000  0.16930000  0.93670000  1
  N  N112  1  0.12540000  0.28790000  0.09070000  1
  N  N113  1  0.21540000  0.88870000  0.12490000  1
  N  N114  1  0.28460000  0.87510000  0.11130000  1
  N  N115  1  0.37460000  0.90930000  0.71210000  1
  N  N116  1  0.62540000  0.09070000  0.28790000  1
  N  N117  1  0.71540000  0.12490000  0.88870000  1
  N  N118  1  0.78460000  0.11130000  0.87510000  1
  N  N119  1  0.87460000  0.71210000  0.90930000  1
  O  O120  1  0.01470000  0.91550000  0.89050000  1
  O  O121  1  0.04160000  0.80690000  0.77010000  1
  O  O122  1  0.04810000  0.19010000  0.42190000  1
  O  O123  1  0.05970000  0.68280000  0.60480000  1
  O  O124  1  0.13480000  0.88120000  0.62180000  1
  O  O125  1  0.19820000  0.36240000  0.42100000  1
  O  O126  1  0.21760000  0.32730000  0.29250000  1
  O  O127  1  0.21760000  0.83650000  0.78810000  1
  O  O128  1  0.22000000  0.02360000  0.58460000  1
  O  O129  1  0.28000000  0.41540000  0.97640000  1
  O  O130  1  0.28240000  0.21190000  0.16350000  1
  O  O131  1  0.28240000  0.70750000  0.67270000  1
  O  O132  1  0.30180000  0.57900000  0.63760000  1
  O  O133  1  0.36520000  0.37820000  0.11880000  1
  O  O134  1  0.44030000  0.39520000  0.31720000  1
  O  O135  1  0.45190000  0.57810000  0.80990000  1
  O  O136  1  0.45840000  0.22990000  0.19310000  1
  O  O137  1  0.48530000  0.10950000  0.08450000  1
  O  O138  1  0.51470000  0.89050000  0.91550000  1
  O  O139  1  0.54160000  0.77010000  0.80690000  1
  O  O140  1  0.54810000  0.42190000  0.19010000  1
  O  O141  1  0.55970000  0.60480000  0.68280000  1
  O  O142  1  0.63480000  0.62180000  0.88120000  1
  O  O143  1  0.69820000  0.42100000  0.36240000  1
  O  O144  1  0.71760000  0.29250000  0.32730000  1
  O  O145  1  0.71760000  0.78810000  0.83650000  1
  O  O146  1  0.72000000  0.58460000  0.02360000  1
  O  O147  1  0.78000000  0.97640000  0.41540000  1
  O  O148  1  0.78240000  0.16350000  0.21190000  1
  O  O149  1  0.78240000  0.67270000  0.70750000  1
  O  O150  1  0.80180000  0.63760000  0.57900000  1
  O  O151  1  0.86520000  0.11880000  0.37820000  1
  O  O152  1  0.94030000  0.31720000  0.39520000  1
  O  O153  1  0.95190000  0.80990000  0.57810000  1
  O  O154  1  0.95840000  0.19310000  0.22990000  1
  O  O155  1  0.98530000  0.08450000  0.10950000  1
