# generated using pymatgen
data_Zn3P4(HO3)4
_symmetry_space_group_name_H-M   'P 1'
_cell_length_a   9.10400000
_cell_length_b   10.10340000
_cell_length_c   25.15500000
_cell_angle_alpha   90.00000000
_cell_angle_beta   90.00000000
_cell_angle_gamma   90.00000000
_symmetry_Int_Tables_number   1
_chemical_formula_structural   Zn3P4(HO3)4
_chemical_formula_sum   'Zn12 P16 H16 O48'
_cell_volume   2313.79094981
_cell_formula_units_Z   4
loop_
 _symmetry_equiv_pos_site_id
 _symmetry_equiv_pos_as_xyz
  1  'x, y, z'
loop_
 _atom_site_type_symbol
 _atom_site_label
 _atom_site_symmetry_multiplicity
 _atom_site_fract_x
 _atom_site_fract_y
 _atom_site_fract_z
 _atom_site_occupancy
  Zn  Zn0  1  0.12094000  0.15762000  0.55301000  1
  Zn  Zn1  1  0.62094000  0.15762000  0.94699000  1
  Zn  Zn2  1  0.34437000  0.25000000  0.75000000  1
  Zn  Zn3  1  0.84437000  0.25000000  0.75000000  1
  Zn  Zn4  1  0.62094000  0.34238000  0.55301000  1
  Zn  Zn5  1  0.12094000  0.34238000  0.94699000  1
  Zn  Zn6  1  0.87906000  0.65762000  0.05301000  1
  Zn  Zn7  1  0.37906000  0.65762000  0.44699000  1
  Zn  Zn8  1  0.15563000  0.75000000  0.25000000  1
  Zn  Zn9  1  0.65563000  0.75000000  0.25000000  1
  Zn  Zn10  1  0.37906000  0.84238000  0.05301000  1
  Zn  Zn11  1  0.87906000  0.84238000  0.44699000  1
  P  P12  1  0.78455000  0.06848000  0.52763000  1
  P  P13  1  0.28455000  0.06848000  0.97237000  1
  P  P14  1  0.09736000  0.10956000  0.68070000  1
  P  P15  1  0.59736000  0.10956000  0.81930000  1
  P  P16  1  0.59736000  0.39044000  0.68070000  1
  P  P17  1  0.09736000  0.39044000  0.81930000  1
  P  P18  1  0.28455000  0.43152000  0.52763000  1
  P  P19  1  0.78455000  0.43152000  0.97237000  1
  P  P20  1  0.21545000  0.56848000  0.02763000  1
  P  P21  1  0.71545000  0.56848000  0.47237000  1
  P  P22  1  0.90264000  0.60956000  0.18070000  1
  P  P23  1  0.40264000  0.60956000  0.31930000  1
  P  P24  1  0.40264000  0.89044000  0.18070000  1
  P  P25  1  0.90264000  0.89044000  0.31930000  1
  P  P26  1  0.71545000  0.93152000  0.02763000  1
  P  P27  1  0.21545000  0.93152000  0.47237000  1
  H  H28  1  0.03650000  0.00050000  0.68790000  1
  H  H29  1  0.53650000  0.00050000  0.81210000  1
  H  H30  1  0.70970000  0.00150000  0.07100000  1
  H  H31  1  0.20970000  0.00150000  0.42900000  1
  H  H32  1  0.20970000  0.49850000  0.07100000  1
  H  H33  1  0.70970000  0.49850000  0.42900000  1
  H  H34  1  0.53650000  0.49950000  0.68790000  1
  H  H35  1  0.03650000  0.49950000  0.81210000  1
  H  H36  1  0.96350000  0.50050000  0.18790000  1
  H  H37  1  0.46350000  0.50050000  0.31210000  1
  H  H38  1  0.29030000  0.50150000  0.57100000  1
  H  H39  1  0.79030000  0.50150000  0.92900000  1
  H  H40  1  0.79030000  0.99850000  0.57100000  1
  H  H41  1  0.29030000  0.99850000  0.92900000  1
  H  H42  1  0.46350000  0.99950000  0.18790000  1
  H  H43  1  0.96350000  0.99950000  0.31210000  1
  O  O44  1  0.24920000  0.02890000  0.51748000  1
  O  O45  1  0.74920000  0.02890000  0.98252000  1
  O  O46  1  0.21670000  0.10960000  0.72294000  1
  O  O47  1  0.71670000  0.10960000  0.77706000  1
  O  O48  1  0.15910000  0.12140000  0.62590000  1
  O  O49  1  0.65910000  0.12140000  0.87410000  1
  O  O50  1  0.92970000  0.13790000  0.52068000  1
  O  O51  1  0.42970000  0.13790000  0.97932000  1
  O  O52  1  0.65550000  0.16130000  0.53275000  1
  O  O53  1  0.15550000  0.16130000  0.96725000  1
  O  O54  1  0.96770000  0.19820000  0.69087000  1
  O  O55  1  0.46770000  0.19820000  0.80913000  1
  O  O56  1  0.46770000  0.30180000  0.69087000  1
  O  O57  1  0.96770000  0.30180000  0.80913000  1
  O  O58  1  0.15550000  0.33870000  0.53275000  1
  O  O59  1  0.65550000  0.33870000  0.96725000  1
  O  O60  1  0.42970000  0.36210000  0.52068000  1
  O  O61  1  0.92970000  0.36210000  0.97932000  1
  O  O62  1  0.65910000  0.37860000  0.62590000  1
  O  O63  1  0.15910000  0.37860000  0.87410000  1
  O  O64  1  0.71670000  0.39040000  0.72294000  1
  O  O65  1  0.21670000  0.39040000  0.77706000  1
  O  O66  1  0.74920000  0.47110000  0.51748000  1
  O  O67  1  0.24920000  0.47110000  0.98252000  1
  O  O68  1  0.75080000  0.52890000  0.01748000  1
  O  O69  1  0.25080000  0.52890000  0.48252000  1
  O  O70  1  0.78330000  0.60960000  0.22294000  1
  O  O71  1  0.28330000  0.60960000  0.27706000  1
  O  O72  1  0.84090000  0.62140000  0.12590000  1
  O  O73  1  0.34090000  0.62140000  0.37410000  1
  O  O74  1  0.07030000  0.63790000  0.02068000  1
  O  O75  1  0.57030000  0.63790000  0.47932000  1
  O  O76  1  0.34450000  0.66130000  0.03275000  1
  O  O77  1  0.84450000  0.66130000  0.46725000  1
  O  O78  1  0.03230000  0.69820000  0.19087000  1
  O  O79  1  0.53230000  0.69820000  0.30913000  1
  O  O80  1  0.53230000  0.80180000  0.19087000  1
  O  O81  1  0.03230000  0.80180000  0.30913000  1
  O  O82  1  0.84450000  0.83870000  0.03275000  1
  O  O83  1  0.34450000  0.83870000  0.46725000  1
  O  O84  1  0.57030000  0.86210000  0.02068000  1
  O  O85  1  0.07030000  0.86210000  0.47932000  1
  O  O86  1  0.34090000  0.87860000  0.12590000  1
  O  O87  1  0.84090000  0.87860000  0.37410000  1
  O  O88  1  0.28330000  0.89040000  0.22294000  1
  O  O89  1  0.78330000  0.89040000  0.27706000  1
  O  O90  1  0.25080000  0.97110000  0.01748000  1
  O  O91  1  0.75080000  0.97110000  0.48252000  1
