# generated using pymatgen
data_Cu17H96C48(IN)17
_symmetry_space_group_name_H-M   'P 1'
_cell_length_a   44.06120000
_cell_length_b   44.06120000
_cell_length_c   44.06120000
_cell_angle_alpha   60.00000000
_cell_angle_beta   60.00000000
_cell_angle_gamma   60.00000000
_symmetry_Int_Tables_number   1
_chemical_formula_structural   Cu17H96C48(IN)17
_chemical_formula_sum   'Cu136 H768 C384 I136 N136'
_cell_volume   60485.87462544
_cell_formula_units_Z   8
loop_
 _symmetry_equiv_pos_site_id
 _symmetry_equiv_pos_as_xyz
  1  'x, y, z'
loop_
 _atom_site_type_symbol
 _atom_site_label
 _atom_site_symmetry_multiplicity
 _atom_site_fract_x
 _atom_site_fract_y
 _atom_site_fract_z
 _atom_site_occupancy
  Cu  Cu0  1  0.24016000  0.85230000  0.99474000  1
  Cu  Cu1  1  0.85230000  0.24016000  0.99474000  1
  Cu  Cu2  1  0.24016000  0.91280000  0.99474000  1
  Cu  Cu3  1  0.91280000  0.24016000  0.99474000  1
  Cu  Cu4  1  0.85230000  0.91280000  0.99474000  1
  Cu  Cu5  1  0.91280000  0.85230000  0.99474000  1
  Cu  Cu6  1  0.15401000  0.15401000  0.96921000  1
  Cu  Cu7  1  0.15401000  0.72277000  0.96921000  1
  Cu  Cu8  1  0.72277000  0.15401000  0.96921000  1
  Cu  Cu9  1  0.30125000  0.87153000  0.95569000  1
  Cu  Cu10  1  0.87153000  0.30125000  0.95569000  1
  Cu  Cu11  1  0.87153000  0.87153000  0.95569000  1
  Cu  Cu12  1  0.35989000  0.35989000  0.92033000  1
  Cu  Cu13  1  0.70256000  0.70256000  0.89232000  1
  Cu  Cu14  1  0.35989000  0.35989000  0.85989000  1
  Cu  Cu15  1  0.35989000  0.42033000  0.85989000  1
  Cu  Cu16  1  0.42033000  0.35989000  0.85989000  1
  Cu  Cu17  1  0.68281000  0.74297000  0.83125000  1
  Cu  Cu18  1  0.74297000  0.68281000  0.83125000  1
  Cu  Cu19  1  0.74297000  0.74297000  0.83125000  1
  Cu  Cu20  1  0.25703000  0.25703000  0.81719000  1
  Cu  Cu21  1  0.25703000  0.66875000  0.81719000  1
  Cu  Cu22  1  0.66875000  0.25703000  0.81719000  1
  Cu  Cu23  1  0.45569000  0.87153000  0.80125000  1
  Cu  Cu24  1  0.87153000  0.45569000  0.80125000  1
  Cu  Cu25  1  0.87153000  0.87153000  0.80125000  1
  Cu  Cu26  1  0.29744000  0.29744000  0.79744000  1
  Cu  Cu27  1  0.29744000  0.60768000  0.79744000  1
  Cu  Cu28  1  0.60768000  0.29744000  0.79744000  1
  Cu  Cu29  1  0.53079000  0.84599000  0.77723000  1
  Cu  Cu30  1  0.84599000  0.53079000  0.77723000  1
  Cu  Cu31  1  0.84599000  0.84599000  0.77723000  1
  Cu  Cu32  1  0.25703000  0.31719000  0.75703000  1
  Cu  Cu33  1  0.31719000  0.25703000  0.75703000  1
  Cu  Cu34  1  0.25703000  0.66875000  0.75703000  1
  Cu  Cu35  1  0.66875000  0.25703000  0.75703000  1
  Cu  Cu36  1  0.31719000  0.66875000  0.75703000  1
  Cu  Cu37  1  0.66875000  0.31719000  0.75703000  1
  Cu  Cu38  1  0.49474000  0.85230000  0.74016000  1
  Cu  Cu39  1  0.85230000  0.49474000  0.74016000  1
  Cu  Cu40  1  0.49474000  0.91280000  0.74016000  1
  Cu  Cu41  1  0.91280000  0.49474000  0.74016000  1
  Cu  Cu42  1  0.85230000  0.91280000  0.74016000  1
  Cu  Cu43  1  0.91280000  0.85230000  0.74016000  1
  Cu  Cu44  1  0.15401000  0.46921000  0.65401000  1
  Cu  Cu45  1  0.46921000  0.15401000  0.65401000  1
  Cu  Cu46  1  0.15401000  0.72277000  0.65401000  1
  Cu  Cu47  1  0.72277000  0.15401000  0.65401000  1
  Cu  Cu48  1  0.46921000  0.72277000  0.65401000  1
  Cu  Cu49  1  0.72277000  0.46921000  0.65401000  1
  Cu  Cu50  1  0.08720000  0.50526000  0.64770000  1
  Cu  Cu51  1  0.50526000  0.08720000  0.64770000  1
  Cu  Cu52  1  0.08720000  0.75984000  0.64770000  1
  Cu  Cu53  1  0.75984000  0.08720000  0.64770000  1
  Cu  Cu54  1  0.50526000  0.75984000  0.64770000  1
  Cu  Cu55  1  0.75984000  0.50526000  0.64770000  1
  Cu  Cu56  1  0.12847000  0.54431000  0.62847000  1
  Cu  Cu57  1  0.54431000  0.12847000  0.62847000  1
  Cu  Cu58  1  0.12847000  0.69875000  0.62847000  1
  Cu  Cu59  1  0.69875000  0.12847000  0.62847000  1
  Cu  Cu60  1  0.54431000  0.69875000  0.62847000  1
  Cu  Cu61  1  0.69875000  0.54431000  0.62847000  1
  Cu  Cu62  1  0.14770000  0.50526000  0.58720000  1
  Cu  Cu63  1  0.50526000  0.14770000  0.58720000  1
  Cu  Cu64  1  0.14770000  0.75984000  0.58720000  1
  Cu  Cu65  1  0.75984000  0.14770000  0.58720000  1
  Cu  Cu66  1  0.50526000  0.75984000  0.58720000  1
  Cu  Cu67  1  0.75984000  0.50526000  0.58720000  1
  Cu  Cu68  1  0.24016000  0.49474000  0.41280000  1
  Cu  Cu69  1  0.49474000  0.24016000  0.41280000  1
  Cu  Cu70  1  0.24016000  0.85230000  0.41280000  1
  Cu  Cu71  1  0.85230000  0.24016000  0.41280000  1
  Cu  Cu72  1  0.49474000  0.85230000  0.41280000  1
  Cu  Cu73  1  0.85230000  0.49474000  0.41280000  1
  Cu  Cu74  1  0.30125000  0.45569000  0.37153000  1
  Cu  Cu75  1  0.45569000  0.30125000  0.37153000  1
  Cu  Cu76  1  0.30125000  0.87153000  0.37153000  1
  Cu  Cu77  1  0.87153000  0.30125000  0.37153000  1
  Cu  Cu78  1  0.45569000  0.87153000  0.37153000  1
  Cu  Cu79  1  0.87153000  0.45569000  0.37153000  1
  Cu  Cu80  1  0.24016000  0.49474000  0.35230000  1
  Cu  Cu81  1  0.49474000  0.24016000  0.35230000  1
  Cu  Cu82  1  0.24016000  0.91280000  0.35230000  1
  Cu  Cu83  1  0.91280000  0.24016000  0.35230000  1
  Cu  Cu84  1  0.49474000  0.91280000  0.35230000  1
  Cu  Cu85  1  0.91280000  0.49474000  0.35230000  1
  Cu  Cu86  1  0.27723000  0.53079000  0.34599000  1
  Cu  Cu87  1  0.53079000  0.27723000  0.34599000  1
  Cu  Cu88  1  0.27723000  0.84599000  0.34599000  1
  Cu  Cu89  1  0.84599000  0.27723000  0.34599000  1
  Cu  Cu90  1  0.53079000  0.84599000  0.34599000  1
  Cu  Cu91  1  0.84599000  0.53079000  0.34599000  1
  Cu  Cu92  1  0.08720000  0.14770000  0.25984000  1
  Cu  Cu93  1  0.14770000  0.08720000  0.25984000  1
  Cu  Cu94  1  0.08720000  0.50526000  0.25984000  1
  Cu  Cu95  1  0.50526000  0.08720000  0.25984000  1
  Cu  Cu96  1  0.14770000  0.50526000  0.25984000  1
  Cu  Cu97  1  0.50526000  0.14770000  0.25984000  1
  Cu  Cu98  1  0.33125000  0.68281000  0.24297000  1
  Cu  Cu99  1  0.68281000  0.33125000  0.24297000  1
  Cu  Cu100  1  0.33125000  0.74297000  0.24297000  1
  Cu  Cu101  1  0.74297000  0.33125000  0.24297000  1
  Cu  Cu102  1  0.68281000  0.74297000  0.24297000  1
  Cu  Cu103  1  0.74297000  0.68281000  0.24297000  1
  Cu  Cu104  1  0.15401000  0.15401000  0.22277000  1
  Cu  Cu105  1  0.15401000  0.46921000  0.22277000  1
  Cu  Cu106  1  0.46921000  0.15401000  0.22277000  1
  Cu  Cu107  1  0.39232000  0.70256000  0.20256000  1
  Cu  Cu108  1  0.70256000  0.39232000  0.20256000  1
  Cu  Cu109  1  0.70256000  0.70256000  0.20256000  1
  Cu  Cu110  1  0.12847000  0.12847000  0.19875000  1
  Cu  Cu111  1  0.12847000  0.54431000  0.19875000  1
  Cu  Cu112  1  0.54431000  0.12847000  0.19875000  1
  Cu  Cu113  1  0.33125000  0.74297000  0.18281000  1
  Cu  Cu114  1  0.74297000  0.33125000  0.18281000  1
  Cu  Cu115  1  0.74297000  0.74297000  0.18281000  1
  Cu  Cu116  1  0.25703000  0.25703000  0.16875000  1
  Cu  Cu117  1  0.25703000  0.31719000  0.16875000  1
  Cu  Cu118  1  0.31719000  0.25703000  0.16875000  1
  Cu  Cu119  1  0.57967000  0.64011000  0.14011000  1
  Cu  Cu120  1  0.64011000  0.57967000  0.14011000  1
  Cu  Cu121  1  0.64011000  0.64011000  0.14011000  1
  Cu  Cu122  1  0.29744000  0.29744000  0.10768000  1
  Cu  Cu123  1  0.64011000  0.64011000  0.07967000  1
  Cu  Cu124  1  0.12847000  0.12847000  0.04431000  1
  Cu  Cu125  1  0.12847000  0.69875000  0.04431000  1
  Cu  Cu126  1  0.69875000  0.12847000  0.04431000  1
  Cu  Cu127  1  0.27723000  0.84599000  0.03079000  1
  Cu  Cu128  1  0.84599000  0.27723000  0.03079000  1
  Cu  Cu129  1  0.84599000  0.84599000  0.03079000  1
  Cu  Cu130  1  0.08720000  0.14770000  0.00526000  1
  Cu  Cu131  1  0.14770000  0.08720000  0.00526000  1
  Cu  Cu132  1  0.08720000  0.75984000  0.00526000  1
  Cu  Cu133  1  0.75984000  0.08720000  0.00526000  1
  Cu  Cu134  1  0.14770000  0.75984000  0.00526000  1
  Cu  Cu135  1  0.75984000  0.14770000  0.00526000  1
  H  H136  1  0.29580000  0.32980000  0.98800000  1
  H  H137  1  0.32980000  0.29580000  0.98800000  1
  H  H138  1  0.29580000  0.38640000  0.98800000  1
  H  H139  1  0.38640000  0.29580000  0.98800000  1
  H  H140  1  0.32980000  0.38640000  0.98800000  1
  H  H141  1  0.38640000  0.32980000  0.98800000  1
  H  H142  1  0.16970000  0.87090000  0.97850000  1
  H  H143  1  0.87090000  0.16970000  0.97850000  1
  H  H144  1  0.16970000  0.98090000  0.97850000  1
  H  H145  1  0.98090000  0.16970000  0.97850000  1
  H  H146  1  0.87090000  0.98090000  0.97850000  1
  H  H147  1  0.98090000  0.87090000  0.97850000  1
  H  H148  1  0.03410000  0.14470000  0.97810000  1
  H  H149  1  0.14470000  0.03410000  0.97810000  1
  H  H150  1  0.03410000  0.84310000  0.97810000  1
  H  H151  1  0.84310000  0.03410000  0.97810000  1
  H  H152  1  0.14470000  0.84310000  0.97810000  1
  H  H153  1  0.84310000  0.14470000  0.97810000  1
  H  H154  1  0.04130000  0.22430000  0.96690000  1
  H  H155  1  0.22430000  0.04130000  0.96690000  1
  H  H156  1  0.04130000  0.76750000  0.96690000  1
  H  H157  1  0.76750000  0.04130000  0.96690000  1
  H  H158  1  0.22430000  0.76750000  0.96690000  1
  H  H159  1  0.76750000  0.22430000  0.96690000  1
  H  H160  1  0.25170000  0.79850000  0.96350000  1
  H  H161  1  0.79850000  0.25170000  0.96350000  1
  H  H162  1  0.25170000  0.98630000  0.96350000  1
  H  H163  1  0.98630000  0.25170000  0.96350000  1
  H  H164  1  0.79850000  0.98630000  0.96350000  1
  H  H165  1  0.98630000  0.79850000  0.96350000  1
  H  H166  1  0.63500000  0.68920000  0.95120000  1
  H  H167  1  0.68920000  0.63500000  0.95120000  1
  H  H168  1  0.63500000  0.72460000  0.95120000  1
  H  H169  1  0.72460000  0.63500000  0.95120000  1
  H  H170  1  0.68920000  0.72460000  0.95120000  1
  H  H171  1  0.72460000  0.68920000  0.95120000  1
  H  H172  1  0.17840000  0.21380000  0.94780000  1
  H  H173  1  0.21380000  0.17840000  0.94780000  1
  H  H174  1  0.17840000  0.66000000  0.94780000  1
  H  H175  1  0.66000000  0.17840000  0.94780000  1
  H  H176  1  0.21380000  0.66000000  0.94780000  1
  H  H177  1  0.66000000  0.21380000  0.94780000  1
  H  H178  1  0.05070000  0.19990000  0.94470000  1
  H  H179  1  0.19990000  0.05070000  0.94470000  1
  H  H180  1  0.05070000  0.80470000  0.94470000  1
  H  H181  1  0.80470000  0.05070000  0.94470000  1
  H  H182  1  0.19990000  0.80470000  0.94470000  1
  H  H183  1  0.80470000  0.19990000  0.94470000  1
  H  H184  1  0.22630000  0.83570000  0.94310000  1
  H  H185  1  0.83570000  0.22630000  0.94310000  1
  H  H186  1  0.22630000  0.99490000  0.94310000  1
  H  H187  1  0.99490000  0.22630000  0.94310000  1
  H  H188  1  0.83570000  0.99490000  0.94310000  1
  H  H189  1  0.99490000  0.83570000  0.94310000  1
  H  H190  1  0.14020000  0.23360000  0.91100000  1
  H  H191  1  0.23360000  0.14020000  0.91100000  1
  H  H192  1  0.14020000  0.71520000  0.91100000  1
  H  H193  1  0.71520000  0.14020000  0.91100000  1
  H  H194  1  0.23360000  0.71520000  0.91100000  1
  H  H195  1  0.71520000  0.23360000  0.91100000  1
  H  H196  1  0.21360000  0.24860000  0.89920000  1
  H  H197  1  0.24860000  0.21360000  0.89920000  1
  H  H198  1  0.21360000  0.63860000  0.89920000  1
  H  H199  1  0.63860000  0.21360000  0.89920000  1
  H  H200  1  0.24860000  0.63860000  0.89920000  1
  H  H201  1  0.63860000  0.24860000  0.89920000  1
  H  H202  1  0.35000000  0.83000000  0.89660000  1
  H  H203  1  0.83000000  0.35000000  0.89660000  1
  H  H204  1  0.35000000  0.92340000  0.89660000  1
  H  H205  1  0.92340000  0.35000000  0.89660000  1
  H  H206  1  0.83000000  0.92340000  0.89660000  1
  H  H207  1  0.92340000  0.83000000  0.89660000  1
  H  H208  1  0.15080000  0.20980000  0.88800000  1
  H  H209  1  0.20980000  0.15080000  0.88800000  1
  H  H210  1  0.15080000  0.75140000  0.88800000  1
  H  H211  1  0.75140000  0.15080000  0.88800000  1
  H  H212  1  0.20980000  0.75140000  0.88800000  1
  H  H213  1  0.75140000  0.20980000  0.88800000  1
  H  H214  1  0.29580000  0.32980000  0.88640000  1
  H  H215  1  0.32980000  0.29580000  0.88640000  1
  H  H216  1  0.29580000  0.48800000  0.88640000  1
  H  H217  1  0.48800000  0.29580000  0.88640000  1
  H  H218  1  0.32980000  0.48800000  0.88640000  1
  H  H219  1  0.48800000  0.32980000  0.88640000  1
  H  H220  1  0.32800000  0.86920000  0.87460000  1
  H  H221  1  0.86920000  0.32800000  0.87460000  1
  H  H222  1  0.32800000  0.92820000  0.87460000  1
  H  H223  1  0.92820000  0.32800000  0.87460000  1
  H  H224  1  0.86920000  0.92820000  0.87460000  1
  H  H225  1  0.92820000  0.86920000  0.87460000  1
  H  H226  1  0.27540000  0.31080000  0.86500000  1
  H  H227  1  0.31080000  0.27540000  0.86500000  1
  H  H228  1  0.27540000  0.54880000  0.86500000  1
  H  H229  1  0.54880000  0.27540000  0.86500000  1
  H  H230  1  0.31080000  0.54880000  0.86500000  1
  H  H231  1  0.54880000  0.31080000  0.86500000  1
  H  H232  1  0.17250000  0.26810000  0.86210000  1
  H  H233  1  0.26810000  0.17250000  0.86210000  1
  H  H234  1  0.17250000  0.69730000  0.86210000  1
  H  H235  1  0.69730000  0.17250000  0.86210000  1
  H  H236  1  0.26810000  0.69730000  0.86210000  1
  H  H237  1  0.69730000  0.26810000  0.86210000  1
  H  H238  1  0.60080000  0.75140000  0.86140000  1
  H  H239  1  0.75140000  0.60080000  0.86140000  1
  H  H240  1  0.60080000  0.78640000  0.86140000  1
  H  H241  1  0.78640000  0.60080000  0.86140000  1
  H  H242  1  0.75140000  0.78640000  0.86140000  1
  H  H243  1  0.78640000  0.75140000  0.86140000  1
  H  H244  1  0.39660000  0.83000000  0.85000000  1
  H  H245  1  0.83000000  0.39660000  0.85000000  1
  H  H246  1  0.39660000  0.92340000  0.85000000  1
  H  H247  1  0.92340000  0.39660000  0.85000000  1
  H  H248  1  0.83000000  0.92340000  0.85000000  1
  H  H249  1  0.92340000  0.83000000  0.85000000  1
  H  H250  1  0.55220000  0.78620000  0.84000000  1
  H  H251  1  0.78620000  0.55220000  0.84000000  1
  H  H252  1  0.55220000  0.82160000  0.84000000  1
  H  H253  1  0.82160000  0.55220000  0.84000000  1
  H  H254  1  0.78620000  0.82160000  0.84000000  1
  H  H255  1  0.82160000  0.78620000  0.84000000  1
  H  H256  1  0.18320000  0.24400000  0.83900000  1
  H  H257  1  0.24400000  0.18320000  0.83900000  1
  H  H258  1  0.18320000  0.73380000  0.83900000  1
  H  H259  1  0.73380000  0.18320000  0.83900000  1
  H  H260  1  0.24400000  0.73380000  0.83900000  1
  H  H261  1  0.73380000  0.24400000  0.83900000  1
  H  H262  1  0.29580000  0.38640000  0.82980000  1
  H  H263  1  0.38640000  0.29580000  0.82980000  1
  H  H264  1  0.29580000  0.48800000  0.82980000  1
  H  H265  1  0.48800000  0.29580000  0.82980000  1
  H  H266  1  0.38640000  0.48800000  0.82980000  1
  H  H267  1  0.48800000  0.38640000  0.82980000  1
  H  H268  1  0.37460000  0.86920000  0.82800000  1
  H  H269  1  0.86920000  0.37460000  0.82800000  1
  H  H270  1  0.37460000  0.92820000  0.82800000  1
  H  H271  1  0.92820000  0.37460000  0.82800000  1
  H  H272  1  0.86920000  0.92820000  0.82800000  1
  H  H273  1  0.92820000  0.86920000  0.82800000  1
  H  H274  1  0.27540000  0.36500000  0.81080000  1
  H  H275  1  0.36500000  0.27540000  0.81080000  1
  H  H276  1  0.27540000  0.54880000  0.81080000  1
  H  H277  1  0.54880000  0.27540000  0.81080000  1
  H  H278  1  0.36500000  0.54880000  0.81080000  1
  H  H279  1  0.54880000  0.36500000  0.81080000  1
  H  H280  1  0.63790000  0.73190000  0.80270000  1
  H  H281  1  0.73190000  0.63790000  0.80270000  1
  H  H282  1  0.63790000  0.82750000  0.80270000  1
  H  H283  1  0.82750000  0.63790000  0.80270000  1
  H  H284  1  0.73190000  0.82750000  0.80270000  1
  H  H285  1  0.82750000  0.73190000  0.80270000  1
  H  H286  1  0.32980000  0.38640000  0.79580000  1
  H  H287  1  0.38640000  0.32980000  0.79580000  1
  H  H288  1  0.32980000  0.48800000  0.79580000  1
  H  H289  1  0.48800000  0.32980000  0.79580000  1
  H  H290  1  0.38640000  0.48800000  0.79580000  1
  H  H291  1  0.48800000  0.38640000  0.79580000  1
  H  H292  1  0.58900000  0.76640000  0.78480000  1
  H  H293  1  0.76640000  0.58900000  0.78480000  1
  H  H294  1  0.58900000  0.85980000  0.78480000  1
  H  H295  1  0.85980000  0.58900000  0.78480000  1
  H  H296  1  0.76640000  0.85980000  0.78480000  1
  H  H297  1  0.85980000  0.76640000  0.78480000  1
  H  H298  1  0.31080000  0.36500000  0.77540000  1
  H  H299  1  0.36500000  0.31080000  0.77540000  1
  H  H300  1  0.31080000  0.54880000  0.77540000  1
  H  H301  1  0.54880000  0.31080000  0.77540000  1
  H  H302  1  0.36500000  0.54880000  0.77540000  1
  H  H303  1  0.54880000  0.36500000  0.77540000  1
  H  H304  1  0.17250000  0.36210000  0.76810000  1
  H  H305  1  0.36210000  0.17250000  0.76810000  1
  H  H306  1  0.17250000  0.69730000  0.76810000  1
  H  H307  1  0.69730000  0.17250000  0.76810000  1
  H  H308  1  0.36210000  0.69730000  0.76810000  1
  H  H309  1  0.69730000  0.36210000  0.76810000  1
  H  H310  1  0.66100000  0.75600000  0.76620000  1
  H  H311  1  0.75600000  0.66100000  0.76620000  1
  H  H312  1  0.66100000  0.81680000  0.76620000  1
  H  H313  1  0.81680000  0.66100000  0.76620000  1
  H  H314  1  0.75600000  0.81680000  0.76620000  1
  H  H315  1  0.81680000  0.75600000  0.76620000  1
  H  H316  1  0.46350000  0.79850000  0.75170000  1
  H  H317  1  0.79850000  0.46350000  0.75170000  1
  H  H318  1  0.46350000  0.98630000  0.75170000  1
  H  H319  1  0.98630000  0.46350000  0.75170000  1
  H  H320  1  0.79850000  0.98630000  0.75170000  1
  H  H321  1  0.98630000  0.79850000  0.75170000  1
  H  H322  1  0.61200000  0.79020000  0.74860000  1
  H  H323  1  0.79020000  0.61200000  0.74860000  1
  H  H324  1  0.61200000  0.84920000  0.74860000  1
  H  H325  1  0.84920000  0.61200000  0.74860000  1
  H  H326  1  0.21360000  0.39920000  0.74860000  1
  H  H327  1  0.39920000  0.21360000  0.74860000  1
  H  H328  1  0.79020000  0.84920000  0.74860000  1
  H  H329  1  0.84920000  0.79020000  0.74860000  1
  H  H330  1  0.21360000  0.63860000  0.74860000  1
  H  H331  1  0.63860000  0.21360000  0.74860000  1
  H  H332  1  0.39920000  0.63860000  0.74860000  1
  H  H333  1  0.63860000  0.39920000  0.74860000  1
  H  H334  1  0.18320000  0.33900000  0.74400000  1
  H  H335  1  0.33900000  0.18320000  0.74400000  1
  H  H336  1  0.18320000  0.73380000  0.74400000  1
  H  H337  1  0.73380000  0.18320000  0.74400000  1
  H  H338  1  0.33900000  0.73380000  0.74400000  1
  H  H339  1  0.73380000  0.33900000  0.74400000  1
  H  H340  1  0.14020000  0.41100000  0.73360000  1
  H  H341  1  0.41100000  0.14020000  0.73360000  1
  H  H342  1  0.14020000  0.71520000  0.73360000  1
  H  H343  1  0.71520000  0.14020000  0.73360000  1
  H  H344  1  0.41100000  0.71520000  0.73360000  1
  H  H345  1  0.71520000  0.41100000  0.73360000  1
  H  H346  1  0.53310000  0.77570000  0.73250000  1
  H  H347  1  0.77570000  0.53310000  0.73250000  1
  H  H348  1  0.53310000  0.95870000  0.73250000  1
  H  H349  1  0.95870000  0.53310000  0.73250000  1
  H  H350  1  0.77570000  0.95870000  0.73250000  1
  H  H351  1  0.95870000  0.77570000  0.73250000  1
  H  H352  1  0.44310000  0.83570000  0.72630000  1
  H  H353  1  0.83570000  0.44310000  0.72630000  1
  H  H354  1  0.44310000  0.99490000  0.72630000  1
  H  H355  1  0.99490000  0.44310000  0.72630000  1
  H  H356  1  0.83570000  0.99490000  0.72630000  1
  H  H357  1  0.99490000  0.83570000  0.72630000  1
  H  H358  1  0.04130000  0.46690000  0.72430000  1
  H  H359  1  0.46690000  0.04130000  0.72430000  1
  H  H360  1  0.04130000  0.76750000  0.72430000  1
  H  H361  1  0.76750000  0.04130000  0.72430000  1
  H  H362  1  0.46690000  0.76750000  0.72430000  1
  H  H363  1  0.76750000  0.46690000  0.72430000  1
  H  H364  1  0.17840000  0.44780000  0.71380000  1
  H  H365  1  0.44780000  0.17840000  0.71380000  1
  H  H366  1  0.17840000  0.66000000  0.71380000  1
  H  H367  1  0.66000000  0.17840000  0.71380000  1
  H  H368  1  0.44780000  0.66000000  0.71380000  1
  H  H369  1  0.66000000  0.44780000  0.71380000  1
  H  H370  1  0.24860000  0.39920000  0.71360000  1
  H  H371  1  0.39920000  0.24860000  0.71360000  1
  H  H372  1  0.24860000  0.63860000  0.71360000  1
  H  H373  1  0.63860000  0.24860000  0.71360000  1
  H  H374  1  0.39920000  0.63860000  0.71360000  1
  H  H375  1  0.63860000  0.39920000  0.71360000  1
  H  H376  1  0.15080000  0.38800000  0.70980000  1
  H  H377  1  0.38800000  0.15080000  0.70980000  1
  H  H378  1  0.15080000  0.75140000  0.70980000  1
  H  H379  1  0.75140000  0.15080000  0.70980000  1
  H  H380  1  0.38800000  0.75140000  0.70980000  1
  H  H381  1  0.75140000  0.38800000  0.70980000  1
  H  H382  1  0.01370000  0.53650000  0.70150000  1
  H  H383  1  0.53650000  0.01370000  0.70150000  1
  H  H384  1  0.01370000  0.74830000  0.70150000  1
  H  H385  1  0.74830000  0.01370000  0.70150000  1
  H  H386  1  0.53650000  0.74830000  0.70150000  1
  H  H387  1  0.74830000  0.53650000  0.70150000  1
  H  H388  1  0.05070000  0.44470000  0.69990000  1
  H  H389  1  0.44470000  0.05070000  0.69990000  1
  H  H390  1  0.05070000  0.80470000  0.69990000  1
  H  H391  1  0.80470000  0.05070000  0.69990000  1
  H  H392  1  0.44470000  0.80470000  0.69990000  1
  H  H393  1  0.80470000  0.44470000  0.69990000  1
  H  H394  1  0.55530000  0.80010000  0.69530000  1
  H  H395  1  0.80010000  0.55530000  0.69530000  1
  H  H396  1  0.55530000  0.94930000  0.69530000  1
  H  H397  1  0.94930000  0.55530000  0.69530000  1
  H  H398  1  0.80010000  0.94930000  0.69530000  1
  H  H399  1  0.94930000  0.80010000  0.69530000  1
  H  H400  1  0.24400000  0.33900000  0.68320000  1
  H  H401  1  0.33900000  0.24400000  0.68320000  1
  H  H402  1  0.24400000  0.73380000  0.68320000  1
  H  H403  1  0.73380000  0.24400000  0.68320000  1
  H  H404  1  0.33900000  0.73380000  0.68320000  1
  H  H405  1  0.73380000  0.33900000  0.68320000  1
  H  H406  1  0.21380000  0.44780000  0.67840000  1
  H  H407  1  0.44780000  0.21380000  0.67840000  1
  H  H408  1  0.21380000  0.66000000  0.67840000  1
  H  H409  1  0.66000000  0.21380000  0.67840000  1
  H  H410  1  0.44780000  0.66000000  0.67840000  1
  H  H411  1  0.66000000  0.44780000  0.67840000  1
  H  H412  1  0.26810000  0.36210000  0.67250000  1
  H  H413  1  0.36210000  0.26810000  0.67250000  1
  H  H414  1  0.26810000  0.69730000  0.67250000  1
  H  H415  1  0.69730000  0.26810000  0.67250000  1
  H  H416  1  0.36210000  0.69730000  0.67250000  1
  H  H417  1  0.69730000  0.36210000  0.67250000  1
  H  H418  1  0.07660000  0.60340000  0.67000000  1
  H  H419  1  0.60340000  0.07660000  0.67000000  1
  H  H420  1  0.07660000  0.65000000  0.67000000  1
  H  H421  1  0.65000000  0.07660000  0.67000000  1
  H  H422  1  0.60340000  0.65000000  0.67000000  1
  H  H423  1  0.65000000  0.60340000  0.67000000  1
  H  H424  1  0.47850000  0.87090000  0.66970000  1
  H  H425  1  0.87090000  0.47850000  0.66970000  1
  H  H426  1  0.47850000  0.98090000  0.66970000  1
  H  H427  1  0.98090000  0.47850000  0.66970000  1
  H  H428  1  0.87090000  0.98090000  0.66970000  1
  H  H429  1  0.98090000  0.87090000  0.66970000  1
  H  H430  1  0.00510000  0.55690000  0.66430000  1
  H  H431  1  0.55690000  0.00510000  0.66430000  1
  H  H432  1  0.00510000  0.77370000  0.66430000  1
  H  H433  1  0.77370000  0.00510000  0.66430000  1
  H  H434  1  0.55690000  0.77370000  0.66430000  1
  H  H435  1  0.77370000  0.55690000  0.66430000  1
  H  H436  1  0.52190000  0.85530000  0.65690000  1
  H  H437  1  0.85530000  0.52190000  0.65690000  1
  H  H438  1  0.52190000  0.96590000  0.65690000  1
  H  H439  1  0.96590000  0.52190000  0.65690000  1
  H  H440  1  0.85530000  0.96590000  0.65690000  1
  H  H441  1  0.96590000  0.85530000  0.65690000  1
  H  H442  1  0.20980000  0.38800000  0.65080000  1
  H  H443  1  0.38800000  0.20980000  0.65080000  1
  H  H444  1  0.20980000  0.75140000  0.65080000  1
  H  H445  1  0.75140000  0.20980000  0.65080000  1
  H  H446  1  0.38800000  0.75140000  0.65080000  1
  H  H447  1  0.75140000  0.38800000  0.65080000  1
  H  H448  1  0.03410000  0.47810000  0.64470000  1
  H  H449  1  0.47810000  0.03410000  0.64470000  1
  H  H450  1  0.03410000  0.84310000  0.64470000  1
  H  H451  1  0.84310000  0.03410000  0.64470000  1
  H  H452  1  0.47810000  0.84310000  0.64470000  1
  H  H453  1  0.84310000  0.47810000  0.64470000  1
  H  H454  1  0.23360000  0.41100000  0.64020000  1
  H  H455  1  0.41100000  0.23360000  0.64020000  1
  H  H456  1  0.23360000  0.71520000  0.64020000  1
  H  H457  1  0.71520000  0.23360000  0.64020000  1
  H  H458  1  0.41100000  0.71520000  0.64020000  1
  H  H459  1  0.71520000  0.41100000  0.64020000  1
  H  H460  1  0.07180000  0.62540000  0.63080000  1
  H  H461  1  0.62540000  0.07180000  0.63080000  1
  H  H462  1  0.07180000  0.67200000  0.63080000  1
  H  H463  1  0.67200000  0.07180000  0.63080000  1
  H  H464  1  0.62540000  0.67200000  0.63080000  1
  H  H465  1  0.67200000  0.62540000  0.63080000  1
  H  H466  1  0.01910000  0.52150000  0.62910000  1
  H  H467  1  0.52150000  0.01910000  0.62910000  1
  H  H468  1  0.01910000  0.83030000  0.62910000  1
  H  H469  1  0.83030000  0.01910000  0.62910000  1
  H  H470  1  0.52150000  0.83030000  0.62910000  1
  H  H471  1  0.83030000  0.52150000  0.62910000  1
  H  H472  1  0.17000000  0.60340000  0.57660000  1
  H  H473  1  0.60340000  0.17000000  0.57660000  1
  H  H474  1  0.17000000  0.65000000  0.57660000  1
  H  H475  1  0.65000000  0.17000000  0.57660000  1
  H  H476  1  0.60340000  0.65000000  0.57660000  1
  H  H477  1  0.65000000  0.60340000  0.57660000  1
  H  H478  1  0.13080000  0.62540000  0.57180000  1
  H  H479  1  0.62540000  0.13080000  0.57180000  1
  H  H480  1  0.13080000  0.67200000  0.57180000  1
  H  H481  1  0.67200000  0.13080000  0.57180000  1
  H  H482  1  0.62540000  0.67200000  0.57180000  1
  H  H483  1  0.67200000  0.62540000  0.57180000  1
  H  H484  1  0.19990000  0.44470000  0.55070000  1
  H  H485  1  0.44470000  0.19990000  0.55070000  1
  H  H486  1  0.19990000  0.80470000  0.55070000  1
  H  H487  1  0.80470000  0.19990000  0.55070000  1
  H  H488  1  0.44470000  0.80470000  0.55070000  1
  H  H489  1  0.80470000  0.44470000  0.55070000  1
  H  H490  1  0.22430000  0.46690000  0.54130000  1
  H  H491  1  0.46690000  0.22430000  0.54130000  1
  H  H492  1  0.22430000  0.76750000  0.54130000  1
  H  H493  1  0.76750000  0.22430000  0.54130000  1
  H  H494  1  0.46690000  0.76750000  0.54130000  1
  H  H495  1  0.76750000  0.46690000  0.54130000  1
  H  H496  1  0.14470000  0.47810000  0.53410000  1
  H  H497  1  0.47810000  0.14470000  0.53410000  1
  H  H498  1  0.14470000  0.84310000  0.53410000  1
  H  H499  1  0.84310000  0.14470000  0.53410000  1
  H  H500  1  0.47810000  0.84310000  0.53410000  1
  H  H501  1  0.84310000  0.47810000  0.53410000  1
  H  H502  1  0.12910000  0.52150000  0.51910000  1
  H  H503  1  0.52150000  0.12910000  0.51910000  1
  H  H504  1  0.12910000  0.83030000  0.51910000  1
  H  H505  1  0.83030000  0.12910000  0.51910000  1
  H  H506  1  0.52150000  0.83030000  0.51910000  1
  H  H507  1  0.83030000  0.52150000  0.51910000  1
  H  H508  1  0.20150000  0.53650000  0.51370000  1
  H  H509  1  0.53650000  0.20150000  0.51370000  1
  H  H510  1  0.20150000  0.74830000  0.51370000  1
  H  H511  1  0.74830000  0.20150000  0.51370000  1
  H  H512  1  0.53650000  0.74830000  0.51370000  1
  H  H513  1  0.74830000  0.53650000  0.51370000  1
  H  H514  1  0.16430000  0.55690000  0.50510000  1
  H  H515  1  0.55690000  0.16430000  0.50510000  1
  H  H516  1  0.16430000  0.77370000  0.50510000  1
  H  H517  1  0.77370000  0.16430000  0.50510000  1
  H  H518  1  0.55690000  0.77370000  0.50510000  1
  H  H519  1  0.77370000  0.55690000  0.50510000  1
  H  H520  1  0.22630000  0.44310000  0.49490000  1
  H  H521  1  0.44310000  0.22630000  0.49490000  1
  H  H522  1  0.22630000  0.83570000  0.49490000  1
  H  H523  1  0.83570000  0.22630000  0.49490000  1
  H  H524  1  0.44310000  0.83570000  0.49490000  1
  H  H525  1  0.83570000  0.44310000  0.49490000  1
  H  H526  1  0.25170000  0.46350000  0.48630000  1
  H  H527  1  0.46350000  0.25170000  0.48630000  1
  H  H528  1  0.25170000  0.79850000  0.48630000  1
  H  H529  1  0.79850000  0.25170000  0.48630000  1
  H  H530  1  0.46350000  0.79850000  0.48630000  1
  H  H531  1  0.79850000  0.46350000  0.48630000  1
  H  H532  1  0.16970000  0.47850000  0.48090000  1
  H  H533  1  0.47850000  0.16970000  0.48090000  1
  H  H534  1  0.16970000  0.87090000  0.48090000  1
  H  H535  1  0.87090000  0.16970000  0.48090000  1
  H  H536  1  0.47850000  0.87090000  0.48090000  1
  H  H537  1  0.87090000  0.47850000  0.48090000  1
  H  H538  1  0.15690000  0.52190000  0.46590000  1
  H  H539  1  0.52190000  0.15690000  0.46590000  1
  H  H540  1  0.15690000  0.85530000  0.46590000  1
  H  H541  1  0.85530000  0.15690000  0.46590000  1
  H  H542  1  0.52190000  0.85530000  0.46590000  1
  H  H543  1  0.85530000  0.52190000  0.46590000  1
  H  H544  1  0.23250000  0.53310000  0.45870000  1
  H  H545  1  0.53310000  0.23250000  0.45870000  1
  H  H546  1  0.23250000  0.77570000  0.45870000  1
  H  H547  1  0.77570000  0.23250000  0.45870000  1
  H  H548  1  0.53310000  0.77570000  0.45870000  1
  H  H549  1  0.77570000  0.53310000  0.45870000  1
  H  H550  1  0.19530000  0.55530000  0.44930000  1
  H  H551  1  0.55530000  0.19530000  0.44930000  1
  H  H552  1  0.19530000  0.80010000  0.44930000  1
  H  H553  1  0.80010000  0.19530000  0.44930000  1
  H  H554  1  0.55530000  0.80010000  0.44930000  1
  H  H555  1  0.80010000  0.55530000  0.44930000  1
  H  H556  1  0.32800000  0.37460000  0.42820000  1
  H  H557  1  0.37460000  0.32800000  0.42820000  1
  H  H558  1  0.32800000  0.86920000  0.42820000  1
  H  H559  1  0.86920000  0.32800000  0.42820000  1
  H  H560  1  0.37460000  0.86920000  0.42820000  1
  H  H561  1  0.86920000  0.37460000  0.42820000  1
  H  H562  1  0.35000000  0.39660000  0.42340000  1
  H  H563  1  0.39660000  0.35000000  0.42340000  1
  H  H564  1  0.35000000  0.83000000  0.42340000  1
  H  H565  1  0.83000000  0.35000000  0.42340000  1
  H  H566  1  0.39660000  0.83000000  0.42340000  1
  H  H567  1  0.83000000  0.39660000  0.42340000  1
  H  H568  1  0.16970000  0.47850000  0.37090000  1
  H  H569  1  0.47850000  0.16970000  0.37090000  1
  H  H570  1  0.16970000  0.98090000  0.37090000  1
  H  H571  1  0.98090000  0.16970000  0.37090000  1
  H  H572  1  0.47850000  0.98090000  0.37090000  1
  H  H573  1  0.98090000  0.47850000  0.37090000  1
  H  H574  1  0.32800000  0.37460000  0.36920000  1
  H  H575  1  0.37460000  0.32800000  0.36920000  1
  H  H576  1  0.32800000  0.92820000  0.36920000  1
  H  H577  1  0.92820000  0.32800000  0.36920000  1
  H  H578  1  0.37460000  0.92820000  0.36920000  1
  H  H579  1  0.92820000  0.37460000  0.36920000  1
  H  H580  1  0.28480000  0.58900000  0.35980000  1
  H  H581  1  0.58900000  0.28480000  0.35980000  1
  H  H582  1  0.28480000  0.76640000  0.35980000  1
  H  H583  1  0.76640000  0.28480000  0.35980000  1
  H  H584  1  0.58900000  0.76640000  0.35980000  1
  H  H585  1  0.76640000  0.58900000  0.35980000  1
  H  H586  1  0.15690000  0.52190000  0.35530000  1
  H  H587  1  0.52190000  0.15690000  0.35530000  1
  H  H588  1  0.15690000  0.96590000  0.35530000  1
  H  H589  1  0.96590000  0.15690000  0.35530000  1
  H  H590  1  0.52190000  0.96590000  0.35530000  1
  H  H591  1  0.96590000  0.52190000  0.35530000  1
  H  H592  1  0.24860000  0.61200000  0.34920000  1
  H  H593  1  0.61200000  0.24860000  0.34920000  1
  H  H594  1  0.24860000  0.79020000  0.34920000  1
  H  H595  1  0.79020000  0.24860000  0.34920000  1
  H  H596  1  0.61200000  0.79020000  0.34920000  1
  H  H597  1  0.79020000  0.61200000  0.34920000  1
  H  H598  1  0.03410000  0.14470000  0.34310000  1
  H  H599  1  0.14470000  0.03410000  0.34310000  1
  H  H600  1  0.03410000  0.47810000  0.34310000  1
  H  H601  1  0.47810000  0.03410000  0.34310000  1
  H  H602  1  0.14470000  0.47810000  0.34310000  1
  H  H603  1  0.47810000  0.14470000  0.34310000  1
  H  H604  1  0.22630000  0.44310000  0.33570000  1
  H  H605  1  0.44310000  0.22630000  0.33570000  1
  H  H606  1  0.22630000  0.99490000  0.33570000  1
  H  H607  1  0.99490000  0.22630000  0.33570000  1
  H  H608  1  0.44310000  0.99490000  0.33570000  1
  H  H609  1  0.99490000  0.44310000  0.33570000  1
  H  H610  1  0.01910000  0.12910000  0.33030000  1
  H  H611  1  0.12910000  0.01910000  0.33030000  1
  H  H612  1  0.01910000  0.52150000  0.33030000  1
  H  H613  1  0.52150000  0.01910000  0.33030000  1
  H  H614  1  0.12910000  0.52150000  0.33030000  1
  H  H615  1  0.52150000  0.12910000  0.33030000  1
  H  H616  1  0.35000000  0.39660000  0.33000000  1
  H  H617  1  0.39660000  0.35000000  0.33000000  1
  H  H618  1  0.35000000  0.92340000  0.33000000  1
  H  H619  1  0.92340000  0.35000000  0.33000000  1
  H  H620  1  0.39660000  0.92340000  0.33000000  1
  H  H621  1  0.92340000  0.39660000  0.33000000  1
  H  H622  1  0.30270000  0.63790000  0.32750000  1
  H  H623  1  0.63790000  0.30270000  0.32750000  1
  H  H624  1  0.30270000  0.73190000  0.32750000  1
  H  H625  1  0.73190000  0.30270000  0.32750000  1
  H  H626  1  0.63790000  0.73190000  0.32750000  1
  H  H627  1  0.73190000  0.63790000  0.32750000  1
  H  H628  1  0.34000000  0.55220000  0.32160000  1
  H  H629  1  0.55220000  0.34000000  0.32160000  1
  H  H630  1  0.34000000  0.78620000  0.32160000  1
  H  H631  1  0.78620000  0.34000000  0.32160000  1
  H  H632  1  0.55220000  0.78620000  0.32160000  1
  H  H633  1  0.78620000  0.55220000  0.32160000  1
  H  H634  1  0.26620000  0.66100000  0.31680000  1
  H  H635  1  0.66100000  0.26620000  0.31680000  1
  H  H636  1  0.26620000  0.75600000  0.31680000  1
  H  H637  1  0.75600000  0.26620000  0.31680000  1
  H  H638  1  0.66100000  0.75600000  0.31680000  1
  H  H639  1  0.75600000  0.66100000  0.31680000  1
  H  H640  1  0.05070000  0.19990000  0.30470000  1
  H  H641  1  0.19990000  0.05070000  0.30470000  1
  H  H642  1  0.05070000  0.44470000  0.30470000  1
  H  H643  1  0.44470000  0.05070000  0.30470000  1
  H  H644  1  0.19990000  0.44470000  0.30470000  1
  H  H645  1  0.44470000  0.19990000  0.30470000  1
  H  H646  1  0.19530000  0.55530000  0.30010000  1
  H  H647  1  0.55530000  0.19530000  0.30010000  1
  H  H648  1  0.19530000  0.94930000  0.30010000  1
  H  H649  1  0.94930000  0.19530000  0.30010000  1
  H  H650  1  0.55530000  0.94930000  0.30010000  1
  H  H651  1  0.94930000  0.55530000  0.30010000  1
  H  H652  1  0.25170000  0.46350000  0.29850000  1
  H  H653  1  0.46350000  0.25170000  0.29850000  1
  H  H654  1  0.25170000  0.98630000  0.29850000  1
  H  H655  1  0.98630000  0.25170000  0.29850000  1
  H  H656  1  0.46350000  0.98630000  0.29850000  1
  H  H657  1  0.98630000  0.46350000  0.29850000  1
  H  H658  1  0.24860000  0.61200000  0.29020000  1
  H  H659  1  0.61200000  0.24860000  0.29020000  1
  H  H660  1  0.24860000  0.84920000  0.29020000  1
  H  H661  1  0.84920000  0.24860000  0.29020000  1
  H  H662  1  0.61200000  0.84920000  0.29020000  1
  H  H663  1  0.84920000  0.61200000  0.29020000  1
  H  H664  1  0.36140000  0.60080000  0.28640000  1
  H  H665  1  0.60080000  0.36140000  0.28640000  1
  H  H666  1  0.36140000  0.75140000  0.28640000  1
  H  H667  1  0.75140000  0.36140000  0.28640000  1
  H  H668  1  0.60080000  0.75140000  0.28640000  1
  H  H669  1  0.75140000  0.60080000  0.28640000  1
  H  H670  1  0.34000000  0.55220000  0.28620000  1
  H  H671  1  0.55220000  0.34000000  0.28620000  1
  H  H672  1  0.34000000  0.82160000  0.28620000  1
  H  H673  1  0.82160000  0.34000000  0.28620000  1
  H  H674  1  0.55220000  0.82160000  0.28620000  1
  H  H675  1  0.82160000  0.55220000  0.28620000  1
  H  H676  1  0.23250000  0.53310000  0.27570000  1
  H  H677  1  0.53310000  0.23250000  0.27570000  1
  H  H678  1  0.23250000  0.95870000  0.27570000  1
  H  H679  1  0.95870000  0.23250000  0.27570000  1
  H  H680  1  0.53310000  0.95870000  0.27570000  1
  H  H681  1  0.95870000  0.53310000  0.27570000  1
  H  H682  1  0.00510000  0.16430000  0.27370000  1
  H  H683  1  0.16430000  0.00510000  0.27370000  1
  H  H684  1  0.00510000  0.55690000  0.27370000  1
  H  H685  1  0.55690000  0.00510000  0.27370000  1
  H  H686  1  0.16430000  0.55690000  0.27370000  1
  H  H687  1  0.55690000  0.16430000  0.27370000  1
  H  H688  1  0.04130000  0.22430000  0.26750000  1
  H  H689  1  0.22430000  0.04130000  0.26750000  1
  H  H690  1  0.04130000  0.46690000  0.26750000  1
  H  H691  1  0.46690000  0.04130000  0.26750000  1
  H  H692  1  0.22430000  0.46690000  0.26750000  1
  H  H693  1  0.46690000  0.22430000  0.26750000  1
  H  H694  1  0.28480000  0.58900000  0.26640000  1
  H  H695  1  0.58900000  0.28480000  0.26640000  1
  H  H696  1  0.28480000  0.85980000  0.26640000  1
  H  H697  1  0.85980000  0.28480000  0.26640000  1
  H  H698  1  0.58900000  0.85980000  0.26640000  1
  H  H699  1  0.85980000  0.58900000  0.26640000  1
  H  H700  1  0.26620000  0.66100000  0.25600000  1
  H  H701  1  0.66100000  0.26620000  0.25600000  1
  H  H702  1  0.26620000  0.81680000  0.25600000  1
  H  H703  1  0.81680000  0.26620000  0.25600000  1
  H  H704  1  0.66100000  0.81680000  0.25600000  1
  H  H705  1  0.81680000  0.66100000  0.25600000  1
  H  H706  1  0.36140000  0.60080000  0.25140000  1
  H  H707  1  0.60080000  0.36140000  0.25140000  1
  H  H708  1  0.36140000  0.78640000  0.25140000  1
  H  H709  1  0.78640000  0.36140000  0.25140000  1
  H  H710  1  0.15080000  0.20980000  0.25140000  1
  H  H711  1  0.20980000  0.15080000  0.25140000  1
  H  H712  1  0.60080000  0.78640000  0.25140000  1
  H  H713  1  0.78640000  0.60080000  0.25140000  1
  H  H714  1  0.15080000  0.38800000  0.25140000  1
  H  H715  1  0.38800000  0.15080000  0.25140000  1
  H  H716  1  0.20980000  0.38800000  0.25140000  1
  H  H717  1  0.38800000  0.20980000  0.25140000  1
  H  H718  1  0.01370000  0.20150000  0.24830000  1
  H  H719  1  0.20150000  0.01370000  0.24830000  1
  H  H720  1  0.01370000  0.53650000  0.24830000  1
  H  H721  1  0.53650000  0.01370000  0.24830000  1
  H  H722  1  0.20150000  0.53650000  0.24830000  1
  H  H723  1  0.53650000  0.20150000  0.24830000  1
  H  H724  1  0.18320000  0.24400000  0.23380000  1
  H  H725  1  0.24400000  0.18320000  0.23380000  1
  H  H726  1  0.18320000  0.33900000  0.23380000  1
  H  H727  1  0.33900000  0.18320000  0.23380000  1
  H  H728  1  0.24400000  0.33900000  0.23380000  1
  H  H729  1  0.33900000  0.24400000  0.23380000  1
  H  H730  1  0.30270000  0.63790000  0.23190000  1
  H  H731  1  0.63790000  0.30270000  0.23190000  1
  H  H732  1  0.30270000  0.82750000  0.23190000  1
  H  H733  1  0.82750000  0.30270000  0.23190000  1
  H  H734  1  0.63790000  0.82750000  0.23190000  1
  H  H735  1  0.82750000  0.63790000  0.23190000  1
  H  H736  1  0.45120000  0.63500000  0.22460000  1
  H  H737  1  0.63500000  0.45120000  0.22460000  1
  H  H738  1  0.45120000  0.68920000  0.22460000  1
  H  H739  1  0.68920000  0.45120000  0.22460000  1
  H  H740  1  0.63500000  0.68920000  0.22460000  1
  H  H741  1  0.68920000  0.63500000  0.22460000  1
  H  H742  1  0.14020000  0.23360000  0.21520000  1
  H  H743  1  0.23360000  0.14020000  0.21520000  1
  H  H744  1  0.14020000  0.41100000  0.21520000  1
  H  H745  1  0.41100000  0.14020000  0.21520000  1
  H  H746  1  0.23360000  0.41100000  0.21520000  1
  H  H747  1  0.41100000  0.23360000  0.21520000  1
  H  H748  1  0.51200000  0.61360000  0.20420000  1
  H  H749  1  0.61360000  0.51200000  0.20420000  1
  H  H750  1  0.51200000  0.67020000  0.20420000  1
  H  H751  1  0.67020000  0.51200000  0.20420000  1
  H  H752  1  0.61360000  0.67020000  0.20420000  1
  H  H753  1  0.67020000  0.61360000  0.20420000  1
  H  H754  1  0.17250000  0.26810000  0.19730000  1
  H  H755  1  0.26810000  0.17250000  0.19730000  1
  H  H756  1  0.17250000  0.36210000  0.19730000  1
  H  H757  1  0.36210000  0.17250000  0.19730000  1
  H  H758  1  0.26810000  0.36210000  0.19730000  1
  H  H759  1  0.36210000  0.26810000  0.19730000  1
  H  H760  1  0.45120000  0.63500000  0.18920000  1
  H  H761  1  0.63500000  0.45120000  0.18920000  1
  H  H762  1  0.45120000  0.72460000  0.18920000  1
  H  H763  1  0.72460000  0.45120000  0.18920000  1
  H  H764  1  0.63500000  0.72460000  0.18920000  1
  H  H765  1  0.72460000  0.63500000  0.18920000  1
  H  H766  1  0.07180000  0.13080000  0.17200000  1
  H  H767  1  0.13080000  0.07180000  0.17200000  1
  H  H768  1  0.07180000  0.62540000  0.17200000  1
  H  H769  1  0.62540000  0.07180000  0.17200000  1
  H  H770  1  0.13080000  0.62540000  0.17200000  1
  H  H771  1  0.62540000  0.13080000  0.17200000  1
  H  H772  1  0.51200000  0.61360000  0.17020000  1
  H  H773  1  0.61360000  0.51200000  0.17020000  1
  H  H774  1  0.51200000  0.70420000  0.17020000  1
  H  H775  1  0.70420000  0.51200000  0.17020000  1
  H  H776  1  0.61360000  0.70420000  0.17020000  1
  H  H777  1  0.70420000  0.61360000  0.17020000  1
  H  H778  1  0.26620000  0.75600000  0.16100000  1
  H  H779  1  0.75600000  0.26620000  0.16100000  1
  H  H780  1  0.26620000  0.81680000  0.16100000  1
  H  H781  1  0.81680000  0.26620000  0.16100000  1
  H  H782  1  0.75600000  0.81680000  0.16100000  1
  H  H783  1  0.81680000  0.75600000  0.16100000  1
  H  H784  1  0.17840000  0.21380000  0.16000000  1
  H  H785  1  0.21380000  0.17840000  0.16000000  1
  H  H786  1  0.17840000  0.44780000  0.16000000  1
  H  H787  1  0.44780000  0.17840000  0.16000000  1
  H  H788  1  0.21380000  0.44780000  0.16000000  1
  H  H789  1  0.44780000  0.21380000  0.16000000  1
  H  H790  1  0.07660000  0.17000000  0.15000000  1
  H  H791  1  0.17000000  0.07660000  0.15000000  1
  H  H792  1  0.07660000  0.60340000  0.15000000  1
  H  H793  1  0.60340000  0.07660000  0.15000000  1
  H  H794  1  0.17000000  0.60340000  0.15000000  1
  H  H795  1  0.60340000  0.17000000  0.15000000  1
  H  H796  1  0.21360000  0.24860000  0.13860000  1
  H  H797  1  0.24860000  0.21360000  0.13860000  1
  H  H798  1  0.21360000  0.39920000  0.13860000  1
  H  H799  1  0.39920000  0.21360000  0.13860000  1
  H  H800  1  0.24860000  0.39920000  0.13860000  1
  H  H801  1  0.39920000  0.24860000  0.13860000  1
  H  H802  1  0.30270000  0.73190000  0.13790000  1
  H  H803  1  0.73190000  0.30270000  0.13790000  1
  H  H804  1  0.30270000  0.82750000  0.13790000  1
  H  H805  1  0.82750000  0.30270000  0.13790000  1
  H  H806  1  0.73190000  0.82750000  0.13790000  1
  H  H807  1  0.82750000  0.73190000  0.13790000  1
  H  H808  1  0.45120000  0.68920000  0.13500000  1
  H  H809  1  0.68920000  0.45120000  0.13500000  1
  H  H810  1  0.45120000  0.72460000  0.13500000  1
  H  H811  1  0.72460000  0.45120000  0.13500000  1
  H  H812  1  0.68920000  0.72460000  0.13500000  1
  H  H813  1  0.72460000  0.68920000  0.13500000  1
  H  H814  1  0.07180000  0.13080000  0.12540000  1
  H  H815  1  0.13080000  0.07180000  0.12540000  1
  H  H816  1  0.07180000  0.67200000  0.12540000  1
  H  H817  1  0.67200000  0.07180000  0.12540000  1
  H  H818  1  0.13080000  0.67200000  0.12540000  1
  H  H819  1  0.67200000  0.13080000  0.12540000  1
  H  H820  1  0.51200000  0.67020000  0.11360000  1
  H  H821  1  0.67020000  0.51200000  0.11360000  1
  H  H822  1  0.51200000  0.70420000  0.11360000  1
  H  H823  1  0.70420000  0.51200000  0.11360000  1
  H  H824  1  0.67020000  0.70420000  0.11360000  1
  H  H825  1  0.70420000  0.67020000  0.11360000  1
  H  H826  1  0.24860000  0.79020000  0.11200000  1
  H  H827  1  0.79020000  0.24860000  0.11200000  1
  H  H828  1  0.24860000  0.84920000  0.11200000  1
  H  H829  1  0.84920000  0.24860000  0.11200000  1
  H  H830  1  0.79020000  0.84920000  0.11200000  1
  H  H831  1  0.84920000  0.79020000  0.11200000  1
  H  H832  1  0.07660000  0.17000000  0.10340000  1
  H  H833  1  0.17000000  0.07660000  0.10340000  1
  H  H834  1  0.07660000  0.65000000  0.10340000  1
  H  H835  1  0.65000000  0.07660000  0.10340000  1
  H  H836  1  0.17000000  0.65000000  0.10340000  1
  H  H837  1  0.65000000  0.17000000  0.10340000  1
  H  H838  1  0.36140000  0.75140000  0.10080000  1
  H  H839  1  0.75140000  0.36140000  0.10080000  1
  H  H840  1  0.36140000  0.78640000  0.10080000  1
  H  H841  1  0.78640000  0.36140000  0.10080000  1
  H  H842  1  0.75140000  0.78640000  0.10080000  1
  H  H843  1  0.78640000  0.75140000  0.10080000  1
  H  H844  1  0.28480000  0.76640000  0.08900000  1
  H  H845  1  0.76640000  0.28480000  0.08900000  1
  H  H846  1  0.28480000  0.85980000  0.08900000  1
  H  H847  1  0.85980000  0.28480000  0.08900000  1
  H  H848  1  0.76640000  0.85980000  0.08900000  1
  H  H849  1  0.85980000  0.76640000  0.08900000  1
  H  H850  1  0.00510000  0.16430000  0.05690000  1
  H  H851  1  0.16430000  0.00510000  0.05690000  1
  H  H852  1  0.00510000  0.77370000  0.05690000  1
  H  H853  1  0.77370000  0.00510000  0.05690000  1
  H  H854  1  0.16430000  0.77370000  0.05690000  1
  H  H855  1  0.77370000  0.16430000  0.05690000  1
  H  H856  1  0.19530000  0.80010000  0.05530000  1
  H  H857  1  0.80010000  0.19530000  0.05530000  1
  H  H858  1  0.19530000  0.94930000  0.05530000  1
  H  H859  1  0.94930000  0.19530000  0.05530000  1
  H  H860  1  0.80010000  0.94930000  0.05530000  1
  H  H861  1  0.94930000  0.80010000  0.05530000  1
  H  H862  1  0.34000000  0.78620000  0.05220000  1
  H  H863  1  0.78620000  0.34000000  0.05220000  1
  H  H864  1  0.34000000  0.82160000  0.05220000  1
  H  H865  1  0.82160000  0.34000000  0.05220000  1
  H  H866  1  0.78620000  0.82160000  0.05220000  1
  H  H867  1  0.82160000  0.78620000  0.05220000  1
  H  H868  1  0.27540000  0.31080000  0.04880000  1
  H  H869  1  0.31080000  0.27540000  0.04880000  1
  H  H870  1  0.27540000  0.36500000  0.04880000  1
  H  H871  1  0.36500000  0.27540000  0.04880000  1
  H  H872  1  0.31080000  0.36500000  0.04880000  1
  H  H873  1  0.36500000  0.31080000  0.04880000  1
  H  H874  1  0.01370000  0.20150000  0.03650000  1
  H  H875  1  0.20150000  0.01370000  0.03650000  1
  H  H876  1  0.01370000  0.74830000  0.03650000  1
  H  H877  1  0.74830000  0.01370000  0.03650000  1
  H  H878  1  0.20150000  0.74830000  0.03650000  1
  H  H879  1  0.74830000  0.20150000  0.03650000  1
  H  H880  1  0.23250000  0.77570000  0.03310000  1
  H  H881  1  0.77570000  0.23250000  0.03310000  1
  H  H882  1  0.23250000  0.95870000  0.03310000  1
  H  H883  1  0.95870000  0.23250000  0.03310000  1
  H  H884  1  0.77570000  0.95870000  0.03310000  1
  H  H885  1  0.95870000  0.77570000  0.03310000  1
  H  H886  1  0.15690000  0.85530000  0.02190000  1
  H  H887  1  0.85530000  0.15690000  0.02190000  1
  H  H888  1  0.15690000  0.96590000  0.02190000  1
  H  H889  1  0.96590000  0.15690000  0.02190000  1
  H  H890  1  0.85530000  0.96590000  0.02190000  1
  H  H891  1  0.96590000  0.85530000  0.02190000  1
  H  H892  1  0.01910000  0.12910000  0.02150000  1
  H  H893  1  0.12910000  0.01910000  0.02150000  1
  H  H894  1  0.01910000  0.83030000  0.02150000  1
  H  H895  1  0.83030000  0.01910000  0.02150000  1
  H  H896  1  0.12910000  0.83030000  0.02150000  1
  H  H897  1  0.83030000  0.12910000  0.02150000  1
  H  H898  1  0.61360000  0.67020000  0.01200000  1
  H  H899  1  0.67020000  0.61360000  0.01200000  1
  H  H900  1  0.61360000  0.70420000  0.01200000  1
  H  H901  1  0.70420000  0.61360000  0.01200000  1
  H  H902  1  0.67020000  0.70420000  0.01200000  1
  H  H903  1  0.70420000  0.67020000  0.01200000  1
  C  C904  1  0.17000000  0.84840000  0.99980000  1
  C  C905  1  0.84840000  0.17000000  0.99980000  1
  C  C906  1  0.17000000  0.98180000  0.99980000  1
  C  C907  1  0.98180000  0.17000000  0.99980000  1
  C  C908  1  0.84840000  0.98180000  0.99980000  1
  C  C909  1  0.98180000  0.84840000  0.99980000  1
  C  C910  1  0.31630000  0.31630000  0.99590000  1
  C  C911  1  0.31630000  0.37150000  0.99590000  1
  C  C912  1  0.37150000  0.31630000  0.99590000  1
  C  C913  1  0.03360000  0.20760000  0.96620000  1
  C  C914  1  0.20760000  0.03360000  0.96620000  1
  C  C915  1  0.03360000  0.79260000  0.96620000  1
  C  C916  1  0.79260000  0.03360000  0.96620000  1
  C  C917  1  0.20760000  0.79260000  0.96620000  1
  C  C918  1  0.79260000  0.20760000  0.96620000  1
  C  C919  1  0.22610000  0.81390000  0.96530000  1
  C  C920  1  0.81390000  0.22610000  0.96530000  1
  C  C921  1  0.22610000  0.99470000  0.96530000  1
  C  C922  1  0.99470000  0.22610000  0.96530000  1
  C  C923  1  0.81390000  0.99470000  0.96530000  1
  C  C924  1  0.99470000  0.81390000  0.96530000  1
  C  C925  1  0.64370000  0.69790000  0.96050000  1
  C  C926  1  0.69790000  0.64370000  0.96050000  1
  C  C927  1  0.69790000  0.69790000  0.96050000  1
  C  C928  1  0.19900000  0.19900000  0.93260000  1
  C  C929  1  0.19900000  0.66940000  0.93260000  1
  C  C930  1  0.66940000  0.19900000  0.93260000  1
  C  C931  1  0.22410000  0.22410000  0.89810000  1
  C  C932  1  0.22410000  0.65370000  0.89810000  1
  C  C933  1  0.65370000  0.22410000  0.89810000  1
  C  C934  1  0.16090000  0.21850000  0.89610000  1
  C  C935  1  0.21850000  0.16090000  0.89610000  1
  C  C936  1  0.16090000  0.72450000  0.89610000  1
  C  C937  1  0.72450000  0.16090000  0.89610000  1
  C  C938  1  0.21850000  0.72450000  0.89610000  1
  C  C939  1  0.72450000  0.21850000  0.89610000  1
  C  C940  1  0.34990000  0.85530000  0.88210000  1
  C  C941  1  0.85530000  0.34990000  0.88210000  1
  C  C942  1  0.34990000  0.91270000  0.88210000  1
  C  C943  1  0.91270000  0.34990000  0.88210000  1
  C  C944  1  0.85530000  0.91270000  0.88210000  1
  C  C945  1  0.91270000  0.85530000  0.88210000  1
  C  C946  1  0.31630000  0.31630000  0.87150000  1
  C  C947  1  0.31630000  0.49590000  0.87150000  1
  C  C948  1  0.49590000  0.31630000  0.87150000  1
  C  C949  1  0.18330000  0.24290000  0.86150000  1
  C  C950  1  0.24290000  0.18330000  0.86150000  1
  C  C951  1  0.18330000  0.71230000  0.86150000  1
  C  C952  1  0.71230000  0.18330000  0.86150000  1
  C  C953  1  0.24290000  0.71230000  0.86150000  1
  C  C954  1  0.71230000  0.24290000  0.86150000  1
  C  C955  1  0.30210000  0.30210000  0.85630000  1
  C  C956  1  0.30210000  0.53950000  0.85630000  1
  C  C957  1  0.53950000  0.30210000  0.85630000  1
  C  C958  1  0.38210000  0.85530000  0.84990000  1
  C  C959  1  0.85530000  0.38210000  0.84990000  1
  C  C960  1  0.38210000  0.91270000  0.84990000  1
  C  C961  1  0.91270000  0.38210000  0.84990000  1
  C  C962  1  0.85530000  0.91270000  0.84990000  1
  C  C963  1  0.91270000  0.85530000  0.84990000  1
  C  C964  1  0.60190000  0.77590000  0.84630000  1
  C  C965  1  0.77590000  0.60190000  0.84630000  1
  C  C966  1  0.77590000  0.77590000  0.84630000  1
  C  C967  1  0.56740000  0.80100000  0.83060000  1
  C  C968  1  0.80100000  0.56740000  0.83060000  1
  C  C969  1  0.80100000  0.80100000  0.83060000  1
  C  C970  1  0.31630000  0.37150000  0.81630000  1
  C  C971  1  0.37150000  0.31630000  0.81630000  1
  C  C972  1  0.31630000  0.49590000  0.81630000  1
  C  C973  1  0.49590000  0.31630000  0.81630000  1
  C  C974  1  0.37150000  0.49590000  0.81630000  1
  C  C975  1  0.49590000  0.37150000  0.81630000  1
  C  C976  1  0.30210000  0.35630000  0.80210000  1
  C  C977  1  0.35630000  0.30210000  0.80210000  1
  C  C978  1  0.30210000  0.53950000  0.80210000  1
  C  C979  1  0.53950000  0.30210000  0.80210000  1
  C  C980  1  0.35630000  0.53950000  0.80210000  1
  C  C981  1  0.53950000  0.35630000  0.80210000  1
  C  C982  1  0.63850000  0.75710000  0.78770000  1
  C  C983  1  0.75710000  0.63850000  0.78770000  1
  C  C984  1  0.63850000  0.81670000  0.78770000  1
  C  C985  1  0.81670000  0.63850000  0.78770000  1
  C  C986  1  0.75710000  0.81670000  0.78770000  1
  C  C987  1  0.81670000  0.75710000  0.78770000  1
  C  C988  1  0.60390000  0.78150000  0.77550000  1
  C  C989  1  0.78150000  0.60390000  0.77550000  1
  C  C990  1  0.60390000  0.83910000  0.77550000  1
  C  C991  1  0.83910000  0.60390000  0.77550000  1
  C  C992  1  0.78150000  0.83910000  0.77550000  1
  C  C993  1  0.83910000  0.78150000  0.77550000  1
  C  C994  1  0.18330000  0.36150000  0.74290000  1
  C  C995  1  0.36150000  0.18330000  0.74290000  1
  C  C996  1  0.18330000  0.71230000  0.74290000  1
  C  C997  1  0.71230000  0.18330000  0.74290000  1
  C  C998  1  0.36150000  0.71230000  0.74290000  1
  C  C999  1  0.71230000  0.36150000  0.74290000  1
  C  C1000  1  0.46530000  0.81390000  0.72610000  1
  C  C1001  1  0.81390000  0.46530000  0.72610000  1
  C  C1002  1  0.46530000  0.99470000  0.72610000  1
  C  C1003  1  0.99470000  0.46530000  0.72610000  1
  C  C1004  1  0.81390000  0.99470000  0.72610000  1
  C  C1005  1  0.99470000  0.81390000  0.72610000  1
  C  C1006  1  0.22410000  0.39810000  0.72410000  1
  C  C1007  1  0.39810000  0.22410000  0.72410000  1
  C  C1008  1  0.22410000  0.65370000  0.72410000  1
  C  C1009  1  0.65370000  0.22410000  0.72410000  1
  C  C1010  1  0.39810000  0.65370000  0.72410000  1
  C  C1011  1  0.65370000  0.39810000  0.72410000  1
  C  C1012  1  0.16090000  0.39610000  0.71850000  1
  C  C1013  1  0.39610000  0.16090000  0.71850000  1
  C  C1014  1  0.16090000  0.72450000  0.71850000  1
  C  C1015  1  0.72450000  0.16090000  0.71850000  1
  C  C1016  1  0.39610000  0.72450000  0.71850000  1
  C  C1017  1  0.72450000  0.39610000  0.71850000  1
  C  C1018  1  0.03360000  0.46620000  0.70760000  1
  C  C1019  1  0.46620000  0.03360000  0.70760000  1
  C  C1020  1  0.03360000  0.79260000  0.70760000  1
  C  C1021  1  0.79260000  0.03360000  0.70760000  1
  C  C1022  1  0.46620000  0.79260000  0.70760000  1
  C  C1023  1  0.79260000  0.46620000  0.70760000  1
  C  C1024  1  0.53380000  0.79240000  0.70740000  1
  C  C1025  1  0.79240000  0.53380000  0.70740000  1
  C  C1026  1  0.53380000  0.96640000  0.70740000  1
  C  C1027  1  0.96640000  0.53380000  0.70740000  1
  C  C1028  1  0.79240000  0.96640000  0.70740000  1
  C  C1029  1  0.96640000  0.79240000  0.70740000  1
  C  C1030  1  0.19900000  0.43260000  0.69900000  1
  C  C1031  1  0.43260000  0.19900000  0.69900000  1
  C  C1032  1  0.19900000  0.66940000  0.69900000  1
  C  C1033  1  0.66940000  0.19900000  0.69900000  1
  C  C1034  1  0.43260000  0.66940000  0.69900000  1
  C  C1035  1  0.66940000  0.43260000  0.69900000  1
  C  C1036  1  0.00530000  0.53470000  0.68610000  1
  C  C1037  1  0.53470000  0.00530000  0.68610000  1
  C  C1038  1  0.00530000  0.77390000  0.68610000  1
  C  C1039  1  0.77390000  0.00530000  0.68610000  1
  C  C1040  1  0.53470000  0.77390000  0.68610000  1
  C  C1041  1  0.77390000  0.53470000  0.68610000  1
  C  C1042  1  0.24290000  0.36150000  0.68330000  1
  C  C1043  1  0.36150000  0.24290000  0.68330000  1
  C  C1044  1  0.24290000  0.71230000  0.68330000  1
  C  C1045  1  0.71230000  0.24290000  0.68330000  1
  C  C1046  1  0.36150000  0.71230000  0.68330000  1
  C  C1047  1  0.71230000  0.36150000  0.68330000  1
  C  C1048  1  0.49980000  0.84840000  0.67000000  1
  C  C1049  1  0.84840000  0.49980000  0.67000000  1
  C  C1050  1  0.49980000  0.98180000  0.67000000  1
  C  C1051  1  0.98180000  0.49980000  0.67000000  1
  C  C1052  1  0.84840000  0.98180000  0.67000000  1
  C  C1053  1  0.98180000  0.84840000  0.67000000  1
  C  C1054  1  0.21850000  0.39610000  0.66090000  1
  C  C1055  1  0.39610000  0.21850000  0.66090000  1
  C  C1056  1  0.21850000  0.72450000  0.66090000  1
  C  C1057  1  0.72450000  0.21850000  0.66090000  1
  C  C1058  1  0.39610000  0.72450000  0.66090000  1
  C  C1059  1  0.72450000  0.39610000  0.66090000  1
  C  C1060  1  0.01820000  0.50020000  0.65160000  1
  C  C1061  1  0.50020000  0.01820000  0.65160000  1
  C  C1062  1  0.01820000  0.83000000  0.65160000  1
  C  C1063  1  0.83000000  0.01820000  0.65160000  1
  C  C1064  1  0.50020000  0.83000000  0.65160000  1
  C  C1065  1  0.83000000  0.50020000  0.65160000  1
  C  C1066  1  0.08730000  0.61790000  0.64470000  1
  C  C1067  1  0.61790000  0.08730000  0.64470000  1
  C  C1068  1  0.08730000  0.65010000  0.64470000  1
  C  C1069  1  0.65010000  0.08730000  0.64470000  1
  C  C1070  1  0.61790000  0.65010000  0.64470000  1
  C  C1071  1  0.65010000  0.61790000  0.64470000  1
  C  C1072  1  0.14470000  0.61790000  0.58730000  1
  C  C1073  1  0.61790000  0.14470000  0.58730000  1
  C  C1074  1  0.14470000  0.65010000  0.58730000  1
  C  C1075  1  0.65010000  0.14470000  0.58730000  1
  C  C1076  1  0.61790000  0.65010000  0.58730000  1
  C  C1077  1  0.65010000  0.61790000  0.58730000  1
  C  C1078  1  0.20760000  0.46620000  0.53360000  1
  C  C1079  1  0.46620000  0.20760000  0.53360000  1
  C  C1080  1  0.20760000  0.79260000  0.53360000  1
  C  C1081  1  0.79260000  0.20760000  0.53360000  1
  C  C1082  1  0.46620000  0.79260000  0.53360000  1
  C  C1083  1  0.79260000  0.46620000  0.53360000  1
  C  C1084  1  0.15160000  0.50020000  0.51820000  1
  C  C1085  1  0.50020000  0.15160000  0.51820000  1
  C  C1086  1  0.15160000  0.83000000  0.51820000  1
  C  C1087  1  0.83000000  0.15160000  0.51820000  1
  C  C1088  1  0.50020000  0.83000000  0.51820000  1
  C  C1089  1  0.83000000  0.50020000  0.51820000  1
  C  C1090  1  0.18610000  0.53470000  0.50530000  1
  C  C1091  1  0.53470000  0.18610000  0.50530000  1
  C  C1092  1  0.18610000  0.77390000  0.50530000  1
  C  C1093  1  0.77390000  0.18610000  0.50530000  1
  C  C1094  1  0.53470000  0.77390000  0.50530000  1
  C  C1095  1  0.77390000  0.53470000  0.50530000  1
  C  C1096  1  0.22610000  0.46530000  0.49470000  1
  C  C1097  1  0.46530000  0.22610000  0.49470000  1
  C  C1098  1  0.22610000  0.81390000  0.49470000  1
  C  C1099  1  0.81390000  0.22610000  0.49470000  1
  C  C1100  1  0.46530000  0.81390000  0.49470000  1
  C  C1101  1  0.81390000  0.46530000  0.49470000  1
  C  C1102  1  0.17000000  0.49980000  0.48180000  1
  C  C1103  1  0.49980000  0.17000000  0.48180000  1
  C  C1104  1  0.17000000  0.84840000  0.48180000  1
  C  C1105  1  0.84840000  0.17000000  0.48180000  1
  C  C1106  1  0.49980000  0.84840000  0.48180000  1
  C  C1107  1  0.84840000  0.49980000  0.48180000  1
  C  C1108  1  0.20740000  0.53380000  0.46640000  1
  C  C1109  1  0.53380000  0.20740000  0.46640000  1
  C  C1110  1  0.20740000  0.79240000  0.46640000  1
  C  C1111  1  0.79240000  0.20740000  0.46640000  1
  C  C1112  1  0.53380000  0.79240000  0.46640000  1
  C  C1113  1  0.79240000  0.53380000  0.46640000  1
  C  C1114  1  0.34990000  0.38210000  0.41270000  1
  C  C1115  1  0.38210000  0.34990000  0.41270000  1
  C  C1116  1  0.34990000  0.85530000  0.41270000  1
  C  C1117  1  0.85530000  0.34990000  0.41270000  1
  C  C1118  1  0.38210000  0.85530000  0.41270000  1
  C  C1119  1  0.85530000  0.38210000  0.41270000  1
  C  C1120  1  0.34990000  0.38210000  0.35530000  1
  C  C1121  1  0.38210000  0.34990000  0.35530000  1
  C  C1122  1  0.34990000  0.91270000  0.35530000  1
  C  C1123  1  0.91270000  0.34990000  0.35530000  1
  C  C1124  1  0.38210000  0.91270000  0.35530000  1
  C  C1125  1  0.91270000  0.38210000  0.35530000  1
  C  C1126  1  0.17000000  0.49980000  0.34840000  1
  C  C1127  1  0.49980000  0.17000000  0.34840000  1
  C  C1128  1  0.17000000  0.98180000  0.34840000  1
  C  C1129  1  0.98180000  0.17000000  0.34840000  1
  C  C1130  1  0.49980000  0.98180000  0.34840000  1
  C  C1131  1  0.98180000  0.49980000  0.34840000  1
  C  C1132  1  0.27550000  0.60390000  0.33910000  1
  C  C1133  1  0.60390000  0.27550000  0.33910000  1
  C  C1134  1  0.27550000  0.78150000  0.33910000  1
  C  C1135  1  0.78150000  0.27550000  0.33910000  1
  C  C1136  1  0.60390000  0.78150000  0.33910000  1
  C  C1137  1  0.78150000  0.60390000  0.33910000  1
  C  C1138  1  0.01820000  0.15160000  0.33000000  1
  C  C1139  1  0.15160000  0.01820000  0.33000000  1
  C  C1140  1  0.01820000  0.50020000  0.33000000  1
  C  C1141  1  0.50020000  0.01820000  0.33000000  1
  C  C1142  1  0.15160000  0.50020000  0.33000000  1
  C  C1143  1  0.50020000  0.15160000  0.33000000  1
  C  C1144  1  0.28770000  0.63850000  0.31670000  1
  C  C1145  1  0.63850000  0.28770000  0.31670000  1
  C  C1146  1  0.28770000  0.75710000  0.31670000  1
  C  C1147  1  0.75710000  0.28770000  0.31670000  1
  C  C1148  1  0.63850000  0.75710000  0.31670000  1
  C  C1149  1  0.75710000  0.63850000  0.31670000  1
  C  C1150  1  0.22610000  0.46530000  0.31390000  1
  C  C1151  1  0.46530000  0.22610000  0.31390000  1
  C  C1152  1  0.22610000  0.99470000  0.31390000  1
  C  C1153  1  0.99470000  0.22610000  0.31390000  1
  C  C1154  1  0.46530000  0.99470000  0.31390000  1
  C  C1155  1  0.99470000  0.46530000  0.31390000  1
  C  C1156  1  0.33060000  0.56740000  0.30100000  1
  C  C1157  1  0.56740000  0.33060000  0.30100000  1
  C  C1158  1  0.33060000  0.80100000  0.30100000  1
  C  C1159  1  0.80100000  0.33060000  0.30100000  1
  C  C1160  1  0.56740000  0.80100000  0.30100000  1
  C  C1161  1  0.80100000  0.56740000  0.30100000  1
  C  C1162  1  0.03360000  0.20760000  0.29260000  1
  C  C1163  1  0.20760000  0.03360000  0.29260000  1
  C  C1164  1  0.03360000  0.46620000  0.29260000  1
  C  C1165  1  0.46620000  0.03360000  0.29260000  1
  C  C1166  1  0.20760000  0.46620000  0.29260000  1
  C  C1167  1  0.46620000  0.20760000  0.29260000  1
  C  C1168  1  0.20740000  0.53380000  0.29240000  1
  C  C1169  1  0.53380000  0.20740000  0.29240000  1
  C  C1170  1  0.20740000  0.96640000  0.29240000  1
  C  C1171  1  0.96640000  0.20740000  0.29240000  1
  C  C1172  1  0.53380000  0.96640000  0.29240000  1
  C  C1173  1  0.96640000  0.53380000  0.29240000  1
  C  C1174  1  0.27550000  0.60390000  0.28150000  1
  C  C1175  1  0.60390000  0.27550000  0.28150000  1
  C  C1176  1  0.27550000  0.83910000  0.28150000  1
  C  C1177  1  0.83910000  0.27550000  0.28150000  1
  C  C1178  1  0.60390000  0.83910000  0.28150000  1
  C  C1179  1  0.83910000  0.60390000  0.28150000  1
  C  C1180  1  0.34630000  0.60190000  0.27590000  1
  C  C1181  1  0.60190000  0.34630000  0.27590000  1
  C  C1182  1  0.34630000  0.77590000  0.27590000  1
  C  C1183  1  0.77590000  0.34630000  0.27590000  1
  C  C1184  1  0.60190000  0.77590000  0.27590000  1
  C  C1185  1  0.77590000  0.60190000  0.27590000  1
  C  C1186  1  0.00530000  0.18610000  0.27390000  1
  C  C1187  1  0.18610000  0.00530000  0.27390000  1
  C  C1188  1  0.00530000  0.53470000  0.27390000  1
  C  C1189  1  0.53470000  0.00530000  0.27390000  1
  C  C1190  1  0.18610000  0.53470000  0.27390000  1
  C  C1191  1  0.53470000  0.18610000  0.27390000  1
  C  C1192  1  0.28770000  0.63850000  0.25710000  1
  C  C1193  1  0.63850000  0.28770000  0.25710000  1
  C  C1194  1  0.28770000  0.81670000  0.25710000  1
  C  C1195  1  0.81670000  0.28770000  0.25710000  1
  C  C1196  1  0.63850000  0.81670000  0.25710000  1
  C  C1197  1  0.81670000  0.63850000  0.25710000  1
  C  C1198  1  0.16090000  0.21850000  0.22450000  1
  C  C1199  1  0.21850000  0.16090000  0.22450000  1
  C  C1200  1  0.16090000  0.39610000  0.22450000  1
  C  C1201  1  0.39610000  0.16090000  0.22450000  1
  C  C1202  1  0.21850000  0.39610000  0.22450000  1
  C  C1203  1  0.39610000  0.21850000  0.22450000  1
  C  C1204  1  0.18330000  0.24290000  0.21230000  1
  C  C1205  1  0.24290000  0.18330000  0.21230000  1
  C  C1206  1  0.18330000  0.36150000  0.21230000  1
  C  C1207  1  0.36150000  0.18330000  0.21230000  1
  C  C1208  1  0.24290000  0.36150000  0.21230000  1
  C  C1209  1  0.36150000  0.24290000  0.21230000  1
  C  C1210  1  0.46050000  0.64370000  0.19790000  1
  C  C1211  1  0.64370000  0.46050000  0.19790000  1
  C  C1212  1  0.46050000  0.69790000  0.19790000  1
  C  C1213  1  0.69790000  0.46050000  0.19790000  1
  C  C1214  1  0.64370000  0.69790000  0.19790000  1
  C  C1215  1  0.69790000  0.64370000  0.19790000  1
  C  C1216  1  0.50410000  0.62850000  0.18370000  1
  C  C1217  1  0.62850000  0.50410000  0.18370000  1
  C  C1218  1  0.50410000  0.68370000  0.18370000  1
  C  C1219  1  0.68370000  0.50410000  0.18370000  1
  C  C1220  1  0.62850000  0.68370000  0.18370000  1
  C  C1221  1  0.68370000  0.62850000  0.18370000  1
  C  C1222  1  0.19900000  0.19900000  0.16940000  1
  C  C1223  1  0.19900000  0.43260000  0.16940000  1
  C  C1224  1  0.43260000  0.19900000  0.16940000  1
  C  C1225  1  0.22410000  0.22410000  0.15370000  1
  C  C1226  1  0.22410000  0.39810000  0.15370000  1
  C  C1227  1  0.39810000  0.22410000  0.15370000  1
  C  C1228  1  0.08730000  0.14470000  0.15010000  1
  C  C1229  1  0.14470000  0.08730000  0.15010000  1
  C  C1230  1  0.08730000  0.61790000  0.15010000  1
  C  C1231  1  0.61790000  0.08730000  0.15010000  1
  C  C1232  1  0.14470000  0.61790000  0.15010000  1
  C  C1233  1  0.61790000  0.14470000  0.15010000  1
  C  C1234  1  0.46050000  0.69790000  0.14370000  1
  C  C1235  1  0.69790000  0.46050000  0.14370000  1
  C  C1236  1  0.69790000  0.69790000  0.14370000  1
  C  C1237  1  0.28770000  0.75710000  0.13850000  1
  C  C1238  1  0.75710000  0.28770000  0.13850000  1
  C  C1239  1  0.28770000  0.81670000  0.13850000  1
  C  C1240  1  0.81670000  0.28770000  0.13850000  1
  C  C1241  1  0.75710000  0.81670000  0.13850000  1
  C  C1242  1  0.81670000  0.75710000  0.13850000  1
  C  C1243  1  0.50410000  0.68370000  0.12850000  1
  C  C1244  1  0.68370000  0.50410000  0.12850000  1
  C  C1245  1  0.68370000  0.68370000  0.12850000  1
  C  C1246  1  0.08730000  0.14470000  0.11790000  1
  C  C1247  1  0.14470000  0.08730000  0.11790000  1
  C  C1248  1  0.08730000  0.65010000  0.11790000  1
  C  C1249  1  0.65010000  0.08730000  0.11790000  1
  C  C1250  1  0.14470000  0.65010000  0.11790000  1
  C  C1251  1  0.65010000  0.14470000  0.11790000  1
  C  C1252  1  0.27550000  0.78150000  0.10390000  1
  C  C1253  1  0.78150000  0.27550000  0.10390000  1
  C  C1254  1  0.27550000  0.83910000  0.10390000  1
  C  C1255  1  0.83910000  0.27550000  0.10390000  1
  C  C1256  1  0.78150000  0.83910000  0.10390000  1
  C  C1257  1  0.83910000  0.78150000  0.10390000  1
  C  C1258  1  0.34630000  0.77590000  0.10190000  1
  C  C1259  1  0.77590000  0.34630000  0.10190000  1
  C  C1260  1  0.77590000  0.77590000  0.10190000  1
  C  C1261  1  0.33060000  0.80100000  0.06740000  1
  C  C1262  1  0.80100000  0.33060000  0.06740000  1
  C  C1263  1  0.80100000  0.80100000  0.06740000  1
  C  C1264  1  0.30210000  0.30210000  0.03950000  1
  C  C1265  1  0.30210000  0.35630000  0.03950000  1
  C  C1266  1  0.35630000  0.30210000  0.03950000  1
  C  C1267  1  0.00530000  0.18610000  0.03470000  1
  C  C1268  1  0.18610000  0.00530000  0.03470000  1
  C  C1269  1  0.00530000  0.77390000  0.03470000  1
  C  C1270  1  0.77390000  0.00530000  0.03470000  1
  C  C1271  1  0.18610000  0.77390000  0.03470000  1
  C  C1272  1  0.77390000  0.18610000  0.03470000  1
  C  C1273  1  0.20740000  0.79240000  0.03380000  1
  C  C1274  1  0.79240000  0.20740000  0.03380000  1
  C  C1275  1  0.20740000  0.96640000  0.03380000  1
  C  C1276  1  0.96640000  0.20740000  0.03380000  1
  C  C1277  1  0.79240000  0.96640000  0.03380000  1
  C  C1278  1  0.96640000  0.79240000  0.03380000  1
  C  C1279  1  0.62850000  0.68370000  0.00410000  1
  C  C1280  1  0.68370000  0.62850000  0.00410000  1
  C  C1281  1  0.68370000  0.68370000  0.00410000  1
  C  C1282  1  0.01820000  0.15160000  0.00020000  1
  C  C1283  1  0.15160000  0.01820000  0.00020000  1
  C  C1284  1  0.01820000  0.83000000  0.00020000  1
  C  C1285  1  0.83000000  0.01820000  0.00020000  1
  C  C1286  1  0.15160000  0.83000000  0.00020000  1
  C  C1287  1  0.83000000  0.15160000  0.00020000  1
  I  I1288  1  0.30794000  0.79904000  0.99306000  1
  I  I1289  1  0.79904000  0.30794000  0.99306000  1
  I  I1290  1  0.30794000  0.89996000  0.99306000  1
  I  I1291  1  0.89996000  0.30794000  0.99306000  1
  I  I1292  1  0.79904000  0.89996000  0.99306000  1
  I  I1293  1  0.89996000  0.79904000  0.99306000  1
  I  I1294  1  0.13008000  0.13008000  0.94180000  1
  I  I1295  1  0.13008000  0.79804000  0.94180000  1
  I  I1296  1  0.79804000  0.13008000  0.94180000  1
  I  I1297  1  0.24117000  0.91263000  0.93357000  1
  I  I1298  1  0.91263000  0.24117000  0.93357000  1
  I  I1299  1  0.91263000  0.91263000  0.93357000  1
  I  I1300  1  0.29793000  0.40069000  0.90069000  1
  I  I1301  1  0.40069000  0.29793000  0.90069000  1
  I  I1302  1  0.40069000  0.40069000  0.90069000  1
  I  I1303  1  0.67479000  0.67479000  0.87255000  1
  I  I1304  1  0.67479000  0.77787000  0.87255000  1
  I  I1305  1  0.77787000  0.67479000  0.87255000  1
  I  I1306  1  0.22213000  0.32521000  0.82521000  1
  I  I1307  1  0.32521000  0.22213000  0.82521000  1
  I  I1308  1  0.22213000  0.62745000  0.82521000  1
  I  I1309  1  0.62745000  0.22213000  0.82521000  1
  I  I1310  1  0.32521000  0.62745000  0.82521000  1
  I  I1311  1  0.62745000  0.32521000  0.82521000  1
  I  I1312  1  0.49306000  0.79904000  0.80794000  1
  I  I1313  1  0.79904000  0.49306000  0.80794000  1
  I  I1314  1  0.49306000  0.89996000  0.80794000  1
  I  I1315  1  0.89996000  0.49306000  0.80794000  1
  I  I1316  1  0.79904000  0.89996000  0.80794000  1
  I  I1317  1  0.89996000  0.79904000  0.80794000  1
  I  I1318  1  0.40069000  0.40069000  0.79793000  1
  I  I1319  1  0.74339000  0.74339000  0.76983000  1
  I  I1320  1  0.25661000  0.25661000  0.75661000  1
  I  I1321  1  0.25661000  0.73017000  0.75661000  1
  I  I1322  1  0.73017000  0.25661000  0.75661000  1
  I  I1323  1  0.43357000  0.91263000  0.74117000  1
  I  I1324  1  0.91263000  0.43357000  0.74117000  1
  I  I1325  1  0.91263000  0.91263000  0.74117000  1
  I  I1326  1  0.32521000  0.32521000  0.72213000  1
  I  I1327  1  0.32521000  0.62745000  0.72213000  1
  I  I1328  1  0.62745000  0.32521000  0.72213000  1
  I  I1329  1  0.55820000  0.86992000  0.70196000  1
  I  I1330  1  0.86992000  0.55820000  0.70196000  1
  I  I1331  1  0.86992000  0.86992000  0.70196000  1
  I  I1332  1  0.10004000  0.50694000  0.70096000  1
  I  I1333  1  0.50694000  0.10004000  0.70096000  1
  I  I1334  1  0.10004000  0.69206000  0.70096000  1
  I  I1335  1  0.69206000  0.10004000  0.70096000  1
  I  I1336  1  0.50694000  0.69206000  0.70096000  1
  I  I1337  1  0.69206000  0.50694000  0.70096000  1
  I  I1338  1  0.13008000  0.44180000  0.63008000  1
  I  I1339  1  0.44180000  0.13008000  0.63008000  1
  I  I1340  1  0.13008000  0.79804000  0.63008000  1
  I  I1341  1  0.79804000  0.13008000  0.63008000  1
  I  I1342  1  0.44180000  0.79804000  0.63008000  1
  I  I1343  1  0.79804000  0.44180000  0.63008000  1
  I  I1344  1  0.20096000  0.50694000  0.60004000  1
  I  I1345  1  0.50694000  0.20096000  0.60004000  1
  I  I1346  1  0.20096000  0.69206000  0.60004000  1
  I  I1347  1  0.69206000  0.20096000  0.60004000  1
  I  I1348  1  0.50694000  0.69206000  0.60004000  1
  I  I1349  1  0.69206000  0.50694000  0.60004000  1
  I  I1350  1  0.08737000  0.56643000  0.58737000  1
  I  I1351  1  0.56643000  0.08737000  0.58737000  1
  I  I1352  1  0.08737000  0.75883000  0.58737000  1
  I  I1353  1  0.75883000  0.08737000  0.58737000  1
  I  I1354  1  0.56643000  0.75883000  0.58737000  1
  I  I1355  1  0.75883000  0.56643000  0.58737000  1
  I  I1356  1  0.24117000  0.43357000  0.41263000  1
  I  I1357  1  0.43357000  0.24117000  0.41263000  1
  I  I1358  1  0.24117000  0.91263000  0.41263000  1
  I  I1359  1  0.91263000  0.24117000  0.41263000  1
  I  I1360  1  0.43357000  0.91263000  0.41263000  1
  I  I1361  1  0.91263000  0.43357000  0.41263000  1
  I  I1362  1  0.30794000  0.49306000  0.39996000  1
  I  I1363  1  0.49306000  0.30794000  0.39996000  1
  I  I1364  1  0.30794000  0.79904000  0.39996000  1
  I  I1365  1  0.79904000  0.30794000  0.39996000  1
  I  I1366  1  0.49306000  0.79904000  0.39996000  1
  I  I1367  1  0.79904000  0.49306000  0.39996000  1
  I  I1368  1  0.20196000  0.55820000  0.36992000  1
  I  I1369  1  0.55820000  0.20196000  0.36992000  1
  I  I1370  1  0.20196000  0.86992000  0.36992000  1
  I  I1371  1  0.86992000  0.20196000  0.36992000  1
  I  I1372  1  0.55820000  0.86992000  0.36992000  1
  I  I1373  1  0.86992000  0.55820000  0.36992000  1
  I  I1374  1  0.30794000  0.49306000  0.29904000  1
  I  I1375  1  0.49306000  0.30794000  0.29904000  1
  I  I1376  1  0.30794000  0.89996000  0.29904000  1
  I  I1377  1  0.89996000  0.30794000  0.29904000  1
  I  I1378  1  0.49306000  0.89996000  0.29904000  1
  I  I1379  1  0.89996000  0.49306000  0.29904000  1
  I  I1380  1  0.13008000  0.13008000  0.29804000  1
  I  I1381  1  0.13008000  0.44180000  0.29804000  1
  I  I1382  1  0.44180000  0.13008000  0.29804000  1
  I  I1383  1  0.37255000  0.67479000  0.27787000  1
  I  I1384  1  0.67479000  0.37255000  0.27787000  1
  I  I1385  1  0.67479000  0.67479000  0.27787000  1
  I  I1386  1  0.08737000  0.08737000  0.25883000  1
  I  I1387  1  0.08737000  0.56643000  0.25883000  1
  I  I1388  1  0.56643000  0.08737000  0.25883000  1
  I  I1389  1  0.26983000  0.74339000  0.24339000  1
  I  I1390  1  0.74339000  0.26983000  0.24339000  1
  I  I1391  1  0.74339000  0.74339000  0.24339000  1
  I  I1392  1  0.25661000  0.25661000  0.23017000  1
  I  I1393  1  0.59931000  0.59931000  0.20207000  1
  I  I1394  1  0.10004000  0.20096000  0.19206000  1
  I  I1395  1  0.20096000  0.10004000  0.19206000  1
  I  I1396  1  0.10004000  0.50694000  0.19206000  1
  I  I1397  1  0.50694000  0.10004000  0.19206000  1
  I  I1398  1  0.20096000  0.50694000  0.19206000  1
  I  I1399  1  0.50694000  0.20096000  0.19206000  1
  I  I1400  1  0.37255000  0.67479000  0.17479000  1
  I  I1401  1  0.67479000  0.37255000  0.17479000  1
  I  I1402  1  0.37255000  0.77787000  0.17479000  1
  I  I1403  1  0.77787000  0.37255000  0.17479000  1
  I  I1404  1  0.67479000  0.77787000  0.17479000  1
  I  I1405  1  0.77787000  0.67479000  0.17479000  1
  I  I1406  1  0.22213000  0.32521000  0.12745000  1
  I  I1407  1  0.32521000  0.22213000  0.12745000  1
  I  I1408  1  0.32521000  0.32521000  0.12745000  1
  I  I1409  1  0.59931000  0.59931000  0.09931000  1
  I  I1410  1  0.59931000  0.70207000  0.09931000  1
  I  I1411  1  0.70207000  0.59931000  0.09931000  1
  I  I1412  1  0.08737000  0.08737000  0.06643000  1
  I  I1413  1  0.08737000  0.75883000  0.06643000  1
  I  I1414  1  0.75883000  0.08737000  0.06643000  1
  I  I1415  1  0.20196000  0.86992000  0.05820000  1
  I  I1416  1  0.86992000  0.20196000  0.05820000  1
  I  I1417  1  0.86992000  0.86992000  0.05820000  1
  I  I1418  1  0.10004000  0.20096000  0.00694000  1
  I  I1419  1  0.20096000  0.10004000  0.00694000  1
  I  I1420  1  0.10004000  0.69206000  0.00694000  1
  I  I1421  1  0.69206000  0.10004000  0.00694000  1
  I  I1422  1  0.20096000  0.69206000  0.00694000  1
  I  I1423  1  0.69206000  0.20096000  0.00694000  1
  N  N1424  1  0.20790000  0.82590000  0.99830000  1
  N  N1425  1  0.82590000  0.20790000  0.99830000  1
  N  N1426  1  0.20790000  0.96790000  0.99830000  1
  N  N1427  1  0.96790000  0.20790000  0.99830000  1
  N  N1428  1  0.82590000  0.96790000  0.99830000  1
  N  N1429  1  0.96790000  0.82590000  0.99830000  1
  N  N1430  1  0.34060000  0.34060000  0.97820000  1
  N  N1431  1  0.68400000  0.68400000  0.94800000  1
  N  N1432  1  0.18410000  0.18410000  0.92110000  1
  N  N1433  1  0.18410000  0.71070000  0.92110000  1
  N  N1434  1  0.71070000  0.18410000  0.92110000  1
  N  N1435  1  0.34700000  0.87280000  0.90740000  1
  N  N1436  1  0.87280000  0.34700000  0.90740000  1
  N  N1437  1  0.87280000  0.87280000  0.90740000  1
  N  N1438  1  0.22430000  0.22430000  0.86270000  1
  N  N1439  1  0.22430000  0.68870000  0.86270000  1
  N  N1440  1  0.68870000  0.22430000  0.86270000  1
  N  N1441  1  0.40740000  0.87280000  0.84700000  1
  N  N1442  1  0.87280000  0.40740000  0.84700000  1
  N  N1443  1  0.87280000  0.87280000  0.84700000  1
  N  N1444  1  0.34060000  0.34060000  0.84060000  1
  N  N1445  1  0.34060000  0.47820000  0.84060000  1
  N  N1446  1  0.47820000  0.34060000  0.84060000  1
  N  N1447  1  0.31600000  0.31600000  0.81600000  1
  N  N1448  1  0.31600000  0.55200000  0.81600000  1
  N  N1449  1  0.55200000  0.31600000  0.81600000  1
  N  N1450  1  0.63730000  0.77570000  0.81130000  1
  N  N1451  1  0.77570000  0.63730000  0.81130000  1
  N  N1452  1  0.77570000  0.77570000  0.81130000  1
  N  N1453  1  0.57890000  0.81590000  0.78930000  1
  N  N1454  1  0.81590000  0.57890000  0.78930000  1
  N  N1455  1  0.81590000  0.81590000  0.78930000  1
  N  N1456  1  0.22430000  0.36270000  0.72430000  1
  N  N1457  1  0.36270000  0.22430000  0.72430000  1
  N  N1458  1  0.22430000  0.68870000  0.72430000  1
  N  N1459  1  0.68870000  0.22430000  0.72430000  1
  N  N1460  1  0.36270000  0.68870000  0.72430000  1
  N  N1461  1  0.68870000  0.36270000  0.72430000  1
  N  N1462  1  0.49830000  0.82590000  0.70790000  1
  N  N1463  1  0.82590000  0.49830000  0.70790000  1
  N  N1464  1  0.49830000  0.96790000  0.70790000  1
  N  N1465  1  0.96790000  0.49830000  0.70790000  1
  N  N1466  1  0.82590000  0.96790000  0.70790000  1
  N  N1467  1  0.96790000  0.82590000  0.70790000  1
  N  N1468  1  0.18410000  0.42110000  0.68410000  1
  N  N1469  1  0.42110000  0.18410000  0.68410000  1
  N  N1470  1  0.18410000  0.71070000  0.68410000  1
  N  N1471  1  0.71070000  0.18410000  0.68410000  1
  N  N1472  1  0.42110000  0.71070000  0.68410000  1
  N  N1473  1  0.71070000  0.42110000  0.68410000  1
  N  N1474  1  0.03210000  0.50170000  0.67410000  1
  N  N1475  1  0.50170000  0.03210000  0.67410000  1
  N  N1476  1  0.03210000  0.79210000  0.67410000  1
  N  N1477  1  0.79210000  0.03210000  0.67410000  1
  N  N1478  1  0.50170000  0.79210000  0.67410000  1
  N  N1479  1  0.79210000  0.50170000  0.67410000  1
  N  N1480  1  0.12720000  0.59260000  0.62720000  1
  N  N1481  1  0.59260000  0.12720000  0.62720000  1
  N  N1482  1  0.12720000  0.65300000  0.62720000  1
  N  N1483  1  0.65300000  0.12720000  0.62720000  1
  N  N1484  1  0.59260000  0.65300000  0.62720000  1
  N  N1485  1  0.65300000  0.59260000  0.62720000  1
  N  N1486  1  0.17410000  0.50170000  0.53210000  1
  N  N1487  1  0.50170000  0.17410000  0.53210000  1
  N  N1488  1  0.17410000  0.79210000  0.53210000  1
  N  N1489  1  0.79210000  0.17410000  0.53210000  1
  N  N1490  1  0.50170000  0.79210000  0.53210000  1
  N  N1491  1  0.79210000  0.50170000  0.53210000  1
  N  N1492  1  0.20790000  0.49830000  0.46790000  1
  N  N1493  1  0.49830000  0.20790000  0.46790000  1
  N  N1494  1  0.20790000  0.82590000  0.46790000  1
  N  N1495  1  0.82590000  0.20790000  0.46790000  1
  N  N1496  1  0.49830000  0.82590000  0.46790000  1
  N  N1497  1  0.82590000  0.49830000  0.46790000  1
  N  N1498  1  0.34700000  0.40740000  0.37280000  1
  N  N1499  1  0.40740000  0.34700000  0.37280000  1
  N  N1500  1  0.34700000  0.87280000  0.37280000  1
  N  N1501  1  0.87280000  0.34700000  0.37280000  1
  N  N1502  1  0.40740000  0.87280000  0.37280000  1
  N  N1503  1  0.87280000  0.40740000  0.37280000  1
  N  N1504  1  0.20790000  0.49830000  0.32590000  1
  N  N1505  1  0.49830000  0.20790000  0.32590000  1
  N  N1506  1  0.20790000  0.96790000  0.32590000  1
  N  N1507  1  0.96790000  0.20790000  0.32590000  1
  N  N1508  1  0.49830000  0.96790000  0.32590000  1
  N  N1509  1  0.96790000  0.49830000  0.32590000  1
  N  N1510  1  0.28930000  0.57890000  0.31590000  1
  N  N1511  1  0.57890000  0.28930000  0.31590000  1
  N  N1512  1  0.28930000  0.81590000  0.31590000  1
  N  N1513  1  0.81590000  0.28930000  0.31590000  1
  N  N1514  1  0.57890000  0.81590000  0.31590000  1
  N  N1515  1  0.81590000  0.57890000  0.31590000  1
  N  N1516  1  0.03210000  0.17410000  0.29210000  1
  N  N1517  1  0.17410000  0.03210000  0.29210000  1
  N  N1518  1  0.03210000  0.50170000  0.29210000  1
  N  N1519  1  0.50170000  0.03210000  0.29210000  1
  N  N1520  1  0.17410000  0.50170000  0.29210000  1
  N  N1521  1  0.50170000  0.17410000  0.29210000  1
  N  N1522  1  0.31130000  0.63730000  0.27570000  1
  N  N1523  1  0.63730000  0.31130000  0.27570000  1
  N  N1524  1  0.31130000  0.77570000  0.27570000  1
  N  N1525  1  0.77570000  0.31130000  0.27570000  1
  N  N1526  1  0.63730000  0.77570000  0.27570000  1
  N  N1527  1  0.77570000  0.63730000  0.27570000  1
  N  N1528  1  0.18410000  0.18410000  0.21070000  1
  N  N1529  1  0.18410000  0.42110000  0.21070000  1
  N  N1530  1  0.42110000  0.18410000  0.21070000  1
  N  N1531  1  0.22430000  0.22430000  0.18870000  1
  N  N1532  1  0.22430000  0.36270000  0.18870000  1
  N  N1533  1  0.36270000  0.22430000  0.18870000  1
  N  N1534  1  0.44800000  0.68400000  0.18400000  1
  N  N1535  1  0.68400000  0.44800000  0.18400000  1
  N  N1536  1  0.68400000  0.68400000  0.18400000  1
  N  N1537  1  0.52180000  0.65940000  0.15940000  1
  N  N1538  1  0.65940000  0.52180000  0.15940000  1
  N  N1539  1  0.65940000  0.65940000  0.15940000  1
  N  N1540  1  0.12720000  0.12720000  0.15300000  1
  N  N1541  1  0.12720000  0.59260000  0.15300000  1
  N  N1542  1  0.59260000  0.12720000  0.15300000  1
  N  N1543  1  0.31130000  0.77570000  0.13730000  1
  N  N1544  1  0.77570000  0.31130000  0.13730000  1
  N  N1545  1  0.77570000  0.77570000  0.13730000  1
  N  N1546  1  0.12720000  0.12720000  0.09260000  1
  N  N1547  1  0.12720000  0.65300000  0.09260000  1
  N  N1548  1  0.65300000  0.12720000  0.09260000  1
  N  N1549  1  0.28930000  0.81590000  0.07890000  1
  N  N1550  1  0.81590000  0.28930000  0.07890000  1
  N  N1551  1  0.81590000  0.81590000  0.07890000  1
  N  N1552  1  0.31600000  0.31600000  0.05200000  1
  N  N1553  1  0.65940000  0.65940000  0.02180000  1
  N  N1554  1  0.03210000  0.17410000  0.00170000  1
  N  N1555  1  0.17410000  0.03210000  0.00170000  1
  N  N1556  1  0.03210000  0.79210000  0.00170000  1
  N  N1557  1  0.79210000  0.03210000  0.00170000  1
  N  N1558  1  0.17410000  0.79210000  0.00170000  1
  N  N1559  1  0.79210000  0.17410000  0.00170000  1
