# generated using pymatgen
data_DyH2C12(NO2)3
_symmetry_space_group_name_H-M   'P 1'
_cell_length_a   10.50590000
_cell_length_b   11.14760000
_cell_length_c   12.79310000
_cell_angle_alpha   100.95500000
_cell_angle_beta   110.45000000
_cell_angle_gamma   99.93900000
_symmetry_Int_Tables_number   1
_chemical_formula_structural   DyH2C12(NO2)3
_chemical_formula_sum   'Dy2 H4 C24 N6 O12'
_cell_volume   1330.93496351
_cell_formula_units_Z   2
loop_
 _symmetry_equiv_pos_site_id
 _symmetry_equiv_pos_as_xyz
  1  'x, y, z'
loop_
 _atom_site_type_symbol
 _atom_site_label
 _atom_site_symmetry_multiplicity
 _atom_site_fract_x
 _atom_site_fract_y
 _atom_site_fract_z
 _atom_site_occupancy
  Dy  Dy0  1  0.39328000  0.95091000  0.82415000  1
  Dy  Dy1  1  0.60672000  0.04909000  0.17585000  1
  H  H2  1  0.08560000  0.92410000  0.86390000  1
  H  H3  1  0.49550000  0.63380000  0.15960000  1
  H  H4  1  0.50450000  0.36620000  0.84040000  1
  H  H5  1  0.91440000  0.07590000  0.13610000  1
  C  C6  1  0.03860000  0.42090000  0.42460000  1
  C  C7  1  0.05110000  0.95490000  0.91850000  1
  C  C8  1  0.09320000  0.05770000  0.11580000  1
  C  C9  1  0.09760000  0.61020000  0.58040000  1
  C  C10  1  0.13630000  0.53130000  0.50480000  1
  C  C11  1  0.14430000  0.01260000  0.03260000  1
  C  C12  1  0.20070000  0.72940000  0.66500000  1
  C  C13  1  0.29810000  0.02280000  0.06510000  1
  C  C14  1  0.47110000  0.75450000  0.99800000  1
  C  C15  1  0.48390000  0.62160000  0.99800000  1
  C  C16  1  0.48600000  0.54070000  0.90050000  1
  C  C17  1  0.49740000  0.58000000  0.09530000  1
  C  C18  1  0.50260000  0.42000000  0.90470000  1
  C  C19  1  0.51400000  0.45930000  0.09950000  1
  C  C20  1  0.51610000  0.37840000  0.00200000  1
  C  C21  1  0.52890000  0.24550000  0.00200000  1
  C  C22  1  0.70190000  0.97720000  0.93490000  1
  C  C23  1  0.79930000  0.27060000  0.33500000  1
  C  C24  1  0.85570000  0.98740000  0.96740000  1
  C  C25  1  0.86370000  0.46870000  0.49520000  1
  C  C26  1  0.90240000  0.38980000  0.41960000  1
  C  C27  1  0.90680000  0.94230000  0.88420000  1
  C  C28  1  0.94890000  0.04510000  0.08150000  1
  C  C29  1  0.96140000  0.57910000  0.57540000  1
  N  N30  1  0.09500000  0.34700000  0.35700000  1
  N  N31  1  0.17580000  0.11630000  0.22480000  1
  N  N32  1  0.27900000  0.53400000  0.52160000  1
  N  N33  1  0.72100000  0.46600000  0.47840000  1
  N  N34  1  0.82420000  0.88370000  0.77520000  1
  N  N35  1  0.90500000  0.65300000  0.64300000  1
  O  O36  1  0.16770000  0.79300000  0.73790000  1
  O  O37  1  0.31830000  0.76500000  0.65950000  1
  O  O38  1  0.34180000  0.99440000  0.98570000  1
  O  O39  1  0.38090000  0.05840000  0.16990000  1
  O  O40  1  0.43260000  0.78030000  0.90340000  1
  O  O41  1  0.49920000  0.16930000  0.90390000  1
  O  O42  1  0.50080000  0.83070000  0.09610000  1
  O  O43  1  0.56740000  0.21970000  0.09660000  1
  O  O44  1  0.61910000  0.94160000  0.83010000  1
  O  O45  1  0.65820000  0.00560000  0.01430000  1
  O  O46  1  0.68170000  0.23500000  0.34050000  1
  O  O47  1  0.83230000  0.20700000  0.26210000  1
