# generated using pymatgen
data_Mn2H39C63(N2O)6
_symmetry_space_group_name_H-M   'P 1'
_cell_length_a   14.10700000
_cell_length_b   17.27500000
_cell_length_c   17.27500000
_cell_angle_alpha   120.00000000
_cell_angle_beta   90.00000000
_cell_angle_gamma   90.00000000
_symmetry_Int_Tables_number   1
_chemical_formula_structural   Mn2H39C63(N2O)6
_chemical_formula_sum   'Mn4 H78 C126 N24 O12'
_cell_volume   3645.87193991
_cell_formula_units_Z   2
loop_
 _symmetry_equiv_pos_site_id
 _symmetry_equiv_pos_as_xyz
  1  'x, y, z'
loop_
 _atom_site_type_symbol
 _atom_site_label
 _atom_site_symmetry_multiplicity
 _atom_site_fract_x
 _atom_site_fract_y
 _atom_site_fract_z
 _atom_site_occupancy
  Mn  Mn0  1  0.10384000  0.33333333  0.66666667  1
  Mn  Mn1  1  0.39616000  0.33333333  0.66666667  1
  Mn  Mn2  1  0.60384000  0.66666667  0.33333333  1
  Mn  Mn3  1  0.89616000  0.66666667  0.33333333  1
  H  H4  1  0.05480000  0.25770000  0.23750000  1
  H  H5  1  0.05480000  0.97980000  0.74230000  1
  H  H6  1  0.05480000  0.76250000  0.02020000  1
  H  H7  1  0.06420000  0.32550000  0.97290000  1
  H  H8  1  0.06420000  0.02710000  0.35260000  1
  H  H9  1  0.06420000  0.64740000  0.67450000  1
  H  H10  1  0.09140000  0.58290000  0.36830000  1
  H  H11  1  0.09140000  0.78540000  0.41710000  1
  H  H12  1  0.09140000  0.63170000  0.21460000  1
  H  H13  1  0.11540000  0.42910000  0.93530000  1
  H  H14  1  0.11540000  0.06470000  0.49380000  1
  H  H15  1  0.11540000  0.50620000  0.57090000  1
  H  H16  1  0.14710000  0.21510000  0.77630000  1
  H  H17  1  0.14710000  0.56120000  0.78490000  1
  H  H18  1  0.14710000  0.22370000  0.43880000  1
  H  H19  1  0.16280000  0.09600000  0.80120000  1
  H  H20  1  0.16280000  0.70520000  0.90400000  1
  H  H21  1  0.16280000  0.19880000  0.29480000  1
  H  H22  1  0.25000000  0.58380000  0.41620000  1
  H  H23  1  0.25000000  0.58380000  0.16760000  1
  H  H24  1  0.25000000  0.83240000  0.41620000  1
  H  H25  1  0.33720000  0.19880000  0.90400000  1
  H  H26  1  0.33720000  0.09600000  0.29480000  1
  H  H27  1  0.33720000  0.70520000  0.80120000  1
  H  H28  1  0.35290000  0.22370000  0.78490000  1
  H  H29  1  0.35290000  0.21510000  0.43880000  1
  H  H30  1  0.35290000  0.56120000  0.77630000  1
  H  H31  1  0.38460000  0.06470000  0.57090000  1
  H  H32  1  0.38460000  0.50620000  0.93530000  1
  H  H33  1  0.38460000  0.42910000  0.49380000  1
  H  H34  1  0.40860000  0.63170000  0.41710000  1
  H  H35  1  0.40860000  0.58290000  0.21460000  1
  H  H36  1  0.40860000  0.78540000  0.36830000  1
  H  H37  1  0.43580000  0.02710000  0.67450000  1
  H  H38  1  0.43580000  0.64740000  0.97290000  1
  H  H39  1  0.43580000  0.32550000  0.35260000  1
  H  H40  1  0.44520000  0.76250000  0.74230000  1
  H  H41  1  0.44520000  0.25770000  0.02020000  1
  H  H42  1  0.44520000  0.97980000  0.23750000  1
  H  H43  1  0.55480000  0.02020000  0.76250000  1
  H  H44  1  0.55480000  0.74230000  0.97980000  1
  H  H45  1  0.55480000  0.23750000  0.25770000  1
  H  H46  1  0.56420000  0.67450000  0.64740000  1
  H  H47  1  0.56420000  0.35260000  0.02710000  1
  H  H48  1  0.56420000  0.97290000  0.32550000  1
  H  H49  1  0.59140000  0.21460000  0.63170000  1
  H  H50  1  0.59140000  0.41710000  0.78540000  1
  H  H51  1  0.59140000  0.36830000  0.58290000  1
  H  H52  1  0.61540000  0.57090000  0.50620000  1
  H  H53  1  0.61540000  0.49380000  0.06470000  1
  H  H54  1  0.61540000  0.93530000  0.42910000  1
  H  H55  1  0.64710000  0.43880000  0.22370000  1
  H  H56  1  0.64710000  0.78490000  0.56120000  1
  H  H57  1  0.64710000  0.77630000  0.21510000  1
  H  H58  1  0.66280000  0.29480000  0.19880000  1
  H  H59  1  0.66280000  0.90400000  0.70520000  1
  H  H60  1  0.66280000  0.80120000  0.09600000  1
  H  H61  1  0.75000000  0.16760000  0.58380000  1
  H  H62  1  0.75000000  0.41620000  0.83240000  1
  H  H63  1  0.75000000  0.41620000  0.58380000  1
  H  H64  1  0.83720000  0.80120000  0.70520000  1
  H  H65  1  0.83720000  0.29480000  0.09600000  1
  H  H66  1  0.83720000  0.90400000  0.19880000  1
  H  H67  1  0.85290000  0.77630000  0.56120000  1
  H  H68  1  0.85290000  0.43880000  0.21510000  1
  H  H69  1  0.85290000  0.78490000  0.22370000  1
  H  H70  1  0.88460000  0.49380000  0.42910000  1
  H  H71  1  0.88460000  0.93530000  0.50620000  1
  H  H72  1  0.88460000  0.57090000  0.06470000  1
  H  H73  1  0.90860000  0.36830000  0.78540000  1
  H  H74  1  0.90860000  0.21460000  0.58290000  1
  H  H75  1  0.90860000  0.41710000  0.63170000  1
  H  H76  1  0.93580000  0.35260000  0.32550000  1
  H  H77  1  0.93580000  0.97290000  0.64740000  1
  H  H78  1  0.93580000  0.67450000  0.02710000  1
  H  H79  1  0.94520000  0.23750000  0.97980000  1
  H  H80  1  0.94520000  0.02020000  0.25770000  1
  H  H81  1  0.94520000  0.74230000  0.76250000  1
  C  C82  1  0.02200000  0.67250000  0.65190000  1
  C  C83  1  0.02200000  0.34810000  0.02060000  1
  C  C84  1  0.02200000  0.97940000  0.32750000  1
  C  C85  1  0.02820000  0.65493000  0.56452000  1
  C  C86  1  0.02820000  0.43548000  0.09041000  1
  C  C87  1  0.02820000  0.90959000  0.34507000  1
  C  C88  1  0.03457000  0.16341000  0.69359000  1
  C  C89  1  0.03457000  0.53018000  0.83659000  1
  C  C90  1  0.03457000  0.30641000  0.46982000  1
  C  C91  1  0.04910000  0.02510000  0.72840000  1
  C  C92  1  0.04910000  0.70330000  0.97490000  1
  C  C93  1  0.04910000  0.27160000  0.29670000  1
  C  C94  1  0.06160000  0.61192000  0.42372000  1
  C  C95  1  0.06160000  0.57628000  0.18820000  1
  C  C96  1  0.06160000  0.81180000  0.38808000  1
  C  C97  1  0.10570000  0.16670000  0.74980000  1
  C  C98  1  0.10570000  0.58310000  0.83330000  1
  C  C99  1  0.10570000  0.25020000  0.41690000  1
  C  C100  1  0.11370000  0.09640000  0.76540000  1
  C  C101  1  0.11370000  0.66900000  0.90360000  1
  C  C102  1  0.11370000  0.23460000  0.33100000  1
  C  C103  1  0.16953000  0.45971000  0.96622000  1
  C  C104  1  0.16953000  0.03378000  0.49349000  1
  C  C105  1  0.16953000  0.50651000  0.54029000  1
  C  C106  1  0.17082000  0.55324000  0.49448000  1
  C  C107  1  0.17082000  0.50552000  0.05876000  1
  C  C108  1  0.17082000  0.94124000  0.44676000  1
  C  C109  1  0.25000000  0.55270000  0.44730000  1
  C  C110  1  0.25000000  0.55270000  0.10540000  1
  C  C111  1  0.25000000  0.89460000  0.44730000  1
  C  C112  1  0.25000000  0.07990000  0.53995000  1
  C  C113  1  0.25000000  0.46005000  0.92010000  1
  C  C114  1  0.25000000  0.18000000  0.59000000  1
  C  C115  1  0.25000000  0.41000000  0.82000000  1
  C  C116  1  0.25000000  0.41000000  0.59000000  1
  C  C117  1  0.25000000  0.46005000  0.53995000  1
  C  C118  1  0.32918000  0.50552000  0.44676000  1
  C  C119  1  0.32918000  0.94124000  0.49448000  1
  C  C120  1  0.32918000  0.55324000  0.05876000  1
  C  C121  1  0.33047000  0.03378000  0.54029000  1
  C  C122  1  0.33047000  0.50651000  0.96622000  1
  C  C123  1  0.33047000  0.45971000  0.49349000  1
  C  C124  1  0.38630000  0.23460000  0.90360000  1
  C  C125  1  0.38630000  0.09640000  0.33100000  1
  C  C126  1  0.38630000  0.66900000  0.76540000  1
  C  C127  1  0.39430000  0.25020000  0.83330000  1
  C  C128  1  0.39430000  0.16670000  0.41690000  1
  C  C129  1  0.39430000  0.58310000  0.74980000  1
  C  C130  1  0.43840000  0.57628000  0.38808000  1
  C  C131  1  0.43840000  0.81180000  0.42372000  1
  C  C132  1  0.43840000  0.61192000  0.18820000  1
  C  C133  1  0.45090000  0.27160000  0.97490000  1
  C  C134  1  0.45090000  0.02510000  0.29670000  1
  C  C135  1  0.45090000  0.70330000  0.72840000  1
  C  C136  1  0.46543000  0.30641000  0.83659000  1
  C  C137  1  0.46543000  0.16341000  0.46982000  1
  C  C138  1  0.46543000  0.53018000  0.69359000  1
  C  C139  1  0.47180000  0.43548000  0.34507000  1
  C  C140  1  0.47180000  0.90959000  0.56452000  1
  C  C141  1  0.47180000  0.65493000  0.09041000  1
  C  C142  1  0.47800000  0.34810000  0.32750000  1
  C  C143  1  0.47800000  0.97940000  0.65190000  1
  C  C144  1  0.47800000  0.67250000  0.02060000  1
  C  C145  1  0.52200000  0.32750000  0.97940000  1
  C  C146  1  0.52200000  0.02060000  0.34810000  1
  C  C147  1  0.52200000  0.65190000  0.67250000  1
  C  C148  1  0.52820000  0.34507000  0.90959000  1
  C  C149  1  0.52820000  0.09041000  0.43548000  1
  C  C150  1  0.52820000  0.56452000  0.65493000  1
  C  C151  1  0.53457000  0.46982000  0.30641000  1
  C  C152  1  0.53457000  0.83659000  0.53018000  1
  C  C153  1  0.53457000  0.69359000  0.16341000  1
  C  C154  1  0.54910000  0.29670000  0.27160000  1
  C  C155  1  0.54910000  0.97490000  0.70330000  1
  C  C156  1  0.54910000  0.72840000  0.02510000  1
  C  C157  1  0.56160000  0.38808000  0.81180000  1
  C  C158  1  0.56160000  0.18820000  0.57628000  1
  C  C159  1  0.56160000  0.42372000  0.61192000  1
  C  C160  1  0.60570000  0.41690000  0.25020000  1
  C  C161  1  0.60570000  0.83330000  0.58310000  1
  C  C162  1  0.60570000  0.74980000  0.16670000  1
  C  C163  1  0.61370000  0.33100000  0.23460000  1
  C  C164  1  0.61370000  0.90360000  0.66900000  1
  C  C165  1  0.61370000  0.76540000  0.09640000  1
  C  C166  1  0.66953000  0.54029000  0.50651000  1
  C  C167  1  0.66953000  0.49349000  0.03378000  1
  C  C168  1  0.66953000  0.96622000  0.45971000  1
  C  C169  1  0.67082000  0.44676000  0.94124000  1
  C  C170  1  0.67082000  0.05876000  0.50552000  1
  C  C171  1  0.67082000  0.49448000  0.55324000  1
  C  C172  1  0.75000000  0.53995000  0.46005000  1
  C  C173  1  0.75000000  0.59000000  0.41000000  1
  C  C174  1  0.75000000  0.59000000  0.18000000  1
  C  C175  1  0.75000000  0.82000000  0.41000000  1
  C  C176  1  0.75000000  0.53995000  0.07990000  1
  C  C177  1  0.75000000  0.92010000  0.46005000  1
  C  C178  1  0.75000000  0.10540000  0.55270000  1
  C  C179  1  0.75000000  0.44730000  0.89460000  1
  C  C180  1  0.75000000  0.44730000  0.55270000  1
  C  C181  1  0.82918000  0.05876000  0.55324000  1
  C  C182  1  0.82918000  0.49448000  0.94124000  1
  C  C183  1  0.82918000  0.44676000  0.50552000  1
  C  C184  1  0.83047000  0.49349000  0.45971000  1
  C  C185  1  0.83047000  0.96622000  0.50651000  1
  C  C186  1  0.83047000  0.54029000  0.03378000  1
  C  C187  1  0.88630000  0.76540000  0.66900000  1
  C  C188  1  0.88630000  0.33100000  0.09640000  1
  C  C189  1  0.88630000  0.90360000  0.23460000  1
  C  C190  1  0.89430000  0.74980000  0.58310000  1
  C  C191  1  0.89430000  0.41690000  0.16670000  1
  C  C192  1  0.89430000  0.83330000  0.25020000  1
  C  C193  1  0.93840000  0.18820000  0.61192000  1
  C  C194  1  0.93840000  0.42372000  0.81180000  1
  C  C195  1  0.93840000  0.38808000  0.57628000  1
  C  C196  1  0.95090000  0.72840000  0.70330000  1
  C  C197  1  0.95090000  0.29670000  0.02510000  1
  C  C198  1  0.95090000  0.97490000  0.27160000  1
  C  C199  1  0.96543000  0.69359000  0.53018000  1
  C  C200  1  0.96543000  0.46982000  0.16341000  1
  C  C201  1  0.96543000  0.83659000  0.30641000  1
  C  C202  1  0.97180000  0.09041000  0.65493000  1
  C  C203  1  0.97180000  0.56452000  0.90959000  1
  C  C204  1  0.97180000  0.34507000  0.43548000  1
  C  C205  1  0.97800000  0.02060000  0.67250000  1
  C  C206  1  0.97800000  0.65190000  0.97940000  1
  C  C207  1  0.97800000  0.32750000  0.34810000  1
  N  N208  1  0.01128000  0.22443000  0.66571000  1
  N  N209  1  0.01128000  0.44128000  0.77557000  1
  N  N210  1  0.01128000  0.33429000  0.55872000  1
  N  N211  1  0.08962000  0.60255000  0.49425000  1
  N  N212  1  0.08962000  0.50575000  0.10830000  1
  N  N213  1  0.08962000  0.89170000  0.39745000  1
  N  N214  1  0.41038000  0.50575000  0.39745000  1
  N  N215  1  0.41038000  0.89170000  0.49425000  1
  N  N216  1  0.41038000  0.60255000  0.10830000  1
  N  N217  1  0.48872000  0.33429000  0.77557000  1
  N  N218  1  0.48872000  0.22443000  0.55872000  1
  N  N219  1  0.48872000  0.44128000  0.66571000  1
  N  N220  1  0.51128000  0.55872000  0.33429000  1
  N  N221  1  0.51128000  0.77557000  0.44128000  1
  N  N222  1  0.51128000  0.66571000  0.22443000  1
  N  N223  1  0.58962000  0.39745000  0.89170000  1
  N  N224  1  0.58962000  0.10830000  0.50575000  1
  N  N225  1  0.58962000  0.49425000  0.60255000  1
  N  N226  1  0.91038000  0.10830000  0.60255000  1
  N  N227  1  0.91038000  0.49425000  0.89170000  1
  N  N228  1  0.91038000  0.39745000  0.50575000  1
  N  N229  1  0.98872000  0.66571000  0.44128000  1
  N  N230  1  0.98872000  0.55872000  0.22443000  1
  N  N231  1  0.98872000  0.77557000  0.33429000  1
  O  O232  1  0.18213000  0.35693000  0.78200000  1
  O  O233  1  0.18213000  0.21800000  0.57493000  1
  O  O234  1  0.18213000  0.42507000  0.64307000  1
  O  O235  1  0.31787000  0.21800000  0.64307000  1
  O  O236  1  0.31787000  0.42507000  0.78200000  1
  O  O237  1  0.31787000  0.35693000  0.57493000  1
  O  O238  1  0.68213000  0.64307000  0.42507000  1
  O  O239  1  0.68213000  0.57493000  0.21800000  1
  O  O240  1  0.68213000  0.78200000  0.35693000  1
  O  O241  1  0.81787000  0.57493000  0.35693000  1
  O  O242  1  0.81787000  0.78200000  0.42507000  1
  O  O243  1  0.81787000  0.64307000  0.21800000  1
