# generated using pymatgen
data_Mn3H57C51N8O9
_symmetry_space_group_name_H-M   'P 1'
_cell_length_a   17.29500000
_cell_length_b   30.18989358
_cell_length_c   30.18989358
_cell_angle_alpha   85.29381426
_cell_angle_beta   73.35524090
_cell_angle_gamma   73.35524090
_symmetry_Int_Tables_number   1
_chemical_formula_structural   Mn3H57C51N8O9
_chemical_formula_sum   'Mn24 H456 C408 N64 O72'
_cell_volume   14469.86897931
_cell_formula_units_Z   8
loop_
 _symmetry_equiv_pos_site_id
 _symmetry_equiv_pos_as_xyz
  1  'x, y, z'
loop_
 _atom_site_type_symbol
 _atom_site_label
 _atom_site_symmetry_multiplicity
 _atom_site_fract_x
 _atom_site_fract_y
 _atom_site_fract_z
 _atom_site_occupancy
  C  C0  1  0.35683000  0.63815000  0.36119000  1
  C  C1  1  0.64383000  0.13815000  0.86119000  1
  C  C2  1  0.29140000  0.69220000  0.30620000  1
  C  C3  1  0.71020000  0.19220000  0.80620000  1
  C  C4  1  0.42841000  0.58101000  0.41217000  1
  C  C5  1  0.57841000  0.08101000  0.91217000  1
  C  C6  1  0.43743000  0.87483000  0.11531000  1
  C  C7  1  0.57243000  0.37483000  0.61531000  1
  C  C8  1  0.36920000  0.82000000  0.17000000  1
  C  C9  1  0.64080000  0.32000000  0.67000000  1
  C  C10  1  0.84510000  0.88690000  0.09050000  1
  C  C11  1  0.17750000  0.38690000  0.59050000  1
  C  C12  1  0.75360000  0.56250000  0.40830000  1
  C  C13  1  0.27560000  0.06250000  0.90830000  1
  C  C14  1  0.39118000  0.91359000  0.04745000  1
  C  C15  1  0.64778000  0.41359000  0.54745000  1
  C  C16  1  0.22882000  0.95170000  0.99866000  1
  C  C17  1  0.82082000  0.45170000  0.49866000  1
  C  C18  1  0.81760000  0.57220000  0.37740000  1
  C  C19  1  0.23280000  0.07220000  0.87740000  1
  C  C20  1  0.65841000  0.50288000  0.42730000  1
  C  C21  1  0.41141000  0.00288000  0.92730000  1
  C  C22  1  0.95059000  0.46969000  0.45353000  1
  C  C23  1  0.12619000  0.96969000  0.95353000  1
  C  C24  1  0.72670000  0.52170000  0.38950000  1
  C  C25  1  0.36210000  0.02170000  0.88950000  1
  C  C26  1  0.20627000  0.94579000  0.95667000  1
  C  C27  1  0.89127000  0.44579000  0.45667000  1
  C  C28  1  0.51640000  0.69380000  0.19220000  1
  C  C29  1  0.59760000  0.19380000  0.69220000  1
  C  C30  1  0.69848000  0.93480000  0.94904000  1
  C  C31  1  0.41768000  0.43480000  0.44904000  1
  C  C32  1  0.01665000  0.46831000  0.41399000  1
  C  C33  1  0.10105000  0.96831000  0.91399000  1
  C  C34  1  0.66290000  0.89925000  0.97895000  1
  C  C35  1  0.45890000  0.39925000  0.47895000  1
  C  C36  1  0.64177000  0.46289000  0.40917000  1
  C  C37  1  0.48617000  0.96289000  0.90917000  1
  C  C38  1  0.92095000  0.91787000  0.95243000  1
  C  C39  1  0.20875000  0.41787000  0.45243000  1
  C  C40  1  0.30186000  0.52867000  0.32821000  1
  C  C41  1  0.84126000  0.02867000  0.82821000  1
  C  C42  1  0.25794000  0.55486000  0.29766000  1
  C  C43  1  0.88954000  0.05486000  0.79766000  1
  C  C44  1  0.46080000  0.67000000  0.18000000  1
  C  C45  1  0.68920000  0.17000000  0.68000000  1
  C  C46  1  0.73204000  0.85890000  0.98962000  1
  C  C47  1  0.41944000  0.35890000  0.48962000  1
  C  C48  1  0.26232000  0.91730000  0.91906000  1
  C  C49  1  0.90132000  0.41730000  0.41906000  1
  C  C50  1  0.98220000  0.87670000  0.95190000  1
  C  C51  1  0.18920000  0.37670000  0.45190000  1
  C  C52  1  0.02243000  0.44255000  0.37719000  1
  C  C53  1  0.15783000  0.94255000  0.87719000  1
  C  C54  1  0.38508000  0.50234000  0.30970000  1
  C  C55  1  0.80288000  0.00234000  0.80970000  1
  C  C56  1  0.43813000  0.47339000  0.33795000  1
  C  C57  1  0.75053000  0.97339000  0.83795000  1
  C  C58  1  0.29535000  0.55284000  0.25026000  1
  C  C59  1  0.90155000  0.05284000  0.75026000  1
  C  C60  1  0.65181000  0.74974000  0.05284000  1
  C  C61  1  0.54561000  0.24974000  0.55284000  1
  C  C62  1  0.96666000  0.41802000  0.37846000  1
  C  C63  1  0.23686000  0.91802000  0.87846000  1
  C  C64  1  0.59806000  0.76796000  0.02592000  1
  C  C65  1  0.60806000  0.26796000  0.52592000  1
  C  C66  1  0.25810000  0.41819000  0.37381000  1
  C  C67  1  0.94990000  0.91819000  0.87381000  1
  C  C68  1  0.50502000  0.63881000  0.13815000  1
  C  C69  1  0.71802000  0.13881000  0.63815000  1
  C  C70  1  0.78505000  0.82954000  0.94716000  1
  C  C71  1  0.43825000  0.32954000  0.44716000  1
  C  C72  1  0.02908000  0.85522000  0.90962000  1
  C  C73  1  0.20608000  0.35522000  0.40962000  1
  C  C74  1  0.41942000  0.50163000  0.26153000  1
  C  C75  1  0.81742000  0.00163000  0.76153000  1
  C  C76  1  0.37602000  0.52592000  0.23204000  1
  C  C77  1  0.86602000  0.02592000  0.73204000  1
  C  C78  1  0.68720000  0.70234000  0.05486000  1
  C  C79  1  0.55560000  0.20234000  0.55486000  1
  C  C80  1  0.55711000  0.84517000  0.90441000  1
  C  C81  1  0.69331000  0.34517000  0.40441000  1
  C  C82  1  0.23879000  0.37756000  0.37166000  1
  C  C83  1  0.01199000  0.87756000  0.87166000  1
  C  C84  1  0.85420000  0.78855000  0.95765000  1
  C  C85  1  0.39960000  0.28855000  0.45765000  1
  C  C86  1  0.44726000  0.61531000  0.12517000  1
  C  C87  1  0.81226000  0.11531000  0.62517000  1
  C  C88  1  0.57895000  0.73847000  0.00163000  1
  C  C89  1  0.68095000  0.23847000  0.50163000  1
  C  C90  1  0.16720000  0.81730000  0.91670000  1
  C  C91  1  0.09880000  0.31730000  0.41670000  1
  C  C92  1  0.77271000  0.41700000  0.30418000  1
  C  C93  1  0.50611000  0.91700000  0.80418000  1
  C  C94  1  0.09791000  0.81089000  0.90869000  1
  C  C95  1  0.18251000  0.31089000  0.40869000  1
  C  C96  1  0.06440000  0.59050000  0.11310000  1
  C  C97  1  0.23200000  0.09050000  0.61310000  1
  C  C98  1  0.66947000  0.67179000  0.02867000  1
  C  C99  1  0.63007000  0.17179000  0.52867000  1
  C  C100  1  0.31981000  0.78350000  0.91148000  1
  C  C101  1  0.98521000  0.28350000  0.41148000  1
  C  C102  1  0.11020000  0.62260000  0.07220000  1
  C  C103  1  0.19500000  0.12260000  0.57220000  1
  C  C104  1  0.61258000  0.69030000  0.00234000  1
  C  C105  1  0.69478000  0.19030000  0.50234000  1
  C  C106  1  0.24317000  0.77654000  0.91532000  1
  C  C107  1  0.06497000  0.27654000  0.41532000  1
  C  C108  1  0.62897000  0.80878000  0.87888000  1
  C  C109  1  0.68337000  0.30878000  0.37888000  1
  C  C110  1  0.84315000  0.41781000  0.26909000  1
  C  C111  1  0.46995000  0.91781000  0.76909000  1
  C  C112  1  0.90520000  0.75970000  0.91410000  1
  C  C113  1  0.42100000  0.25970000  0.41410000  1
  C  C114  1  0.18815000  0.45765000  0.21145000  1
  C  C115  1  0.14275000  0.95765000  0.71145000  1
  C  C116  1  0.49058000  0.58783000  0.08101000  1
  C  C117  1  0.84058000  0.08783000  0.58101000  1
  C  C118  1  0.70258000  0.81817000  0.85007000  1
  C  C119  1  0.62918000  0.31817000  0.35007000  1
  C  C120  1  0.70133000  0.41089000  0.25365000  1
  C  C121  1  0.63413000  0.91089000  0.75365000  1
  C  C122  1  0.38778000  0.74635000  0.91089000  1
  C  C123  1  0.95498000  0.24635000  0.41089000  1
  C  C124  1  0.18070000  0.41410000  0.24030000  1
  C  C125  1  0.16490000  0.91410000  0.74030000  1
  C  C126  1  0.18390000  0.59170000  0.06250000  1
  C  C127  1  0.16190000  0.09170000  0.56250000  1
  C  C128  1  0.23904000  0.73091000  0.91781000  1
  C  C129  1  0.11224000  0.23091000  0.41781000  1
  C  C130  1  0.62394000  0.76302000  0.88390000  1
  C  C131  1  0.72914000  0.26302000  0.38390000  1
  C  C132  1  0.84151000  0.41532000  0.22346000  1
  C  C133  1  0.51971000  0.91532000  0.72346000  1
  C  C134  1  0.58848000  0.66205000  0.97339000  1
  C  C135  1  0.77608000  0.16205000  0.47339000  1
  C  C136  1  0.56137000  0.54745000  0.08641000  1
  C  C137  1  0.80477000  0.04745000  0.58641000  1
  C  C138  1  0.45184000  0.36076000  0.27256000  1
  C  C139  1  0.91484000  0.86076000  0.77256000  1
  C  C140  1  0.25160000  0.61050000  0.02170000  1
  C  C141  1  0.11620000  0.11050000  0.52170000  1
  C  C142  1  0.27834000  0.48962000  0.14110000  1
  C  C143  1  0.09094000  0.98962000  0.64110000  1
  C  C144  1  0.76871000  0.41148000  0.21650000  1
  C  C145  1  0.60331000  0.91148000  0.71650000  1
  C  C146  1  0.49216000  0.38390000  0.23698000  1
  C  C147  1  0.88696000  0.88390000  0.73698000  1
  C  C148  1  0.26779000  0.44716000  0.17046000  1
  C  C149  1  0.11459000  0.94716000  0.67046000  1
  C  C150  1  0.31029000  0.69582000  0.91700000  1
  C  C151  1  0.07689000  0.19582000  0.41700000  1
  C  C152  1  0.76747000  0.78071000  0.82655000  1
  C  C153  1  0.62527000  0.28071000  0.32655000  1
  C  C154  1  0.91610000  0.41670000  0.18270000  1
  C  C155  1  0.48450000  0.91670000  0.68270000  1
  C  C156  1  0.99340000  0.40869000  0.18911000  1
  C  C157  1  0.40880000  0.90869000  0.68911000  1
  C  C158  1  0.40925000  0.33167000  0.26363000  1
  C  C159  1  0.99545000  0.83167000  0.76363000  1
  C  C160  1  0.68740000  0.72744000  0.86076000  1
  C  C161  1  0.72440000  0.22744000  0.36076000  1
  C  C162  1  0.35815000  0.47895000  0.10075000  1
  C  C163  1  0.06215000  0.97895000  0.60075000  1
  C  C164  1  0.33871000  0.57270000  0.00288000  1
  C  C165  1  0.08571000  0.07270000  0.50288000  1
  C  C166  1  0.06590000  0.45190000  0.12330000  1
  C  C167  1  0.35890000  0.95190000  0.62330000  1
  C  C168  1  0.49215000  0.37888000  0.19122000  1
  C  C169  1  0.93775000  0.87888000  0.69122000  1
  C  C170  1  0.75908000  0.73637000  0.83167000  1
  C  C171  1  0.67288000  0.23637000  0.33167000  1
  C  C172  1  0.03502000  0.62281000  0.94255000  1
  C  C173  1  0.39962000  0.12281000  0.44255000  1
  C  C174  1  0.53848000  0.40441000  0.15483000  1
  C  C175  1  0.90228000  0.90441000  0.65483000  1
  C  C176  1  0.06130000  0.40962000  0.14478000  1
  C  C177  1  0.38430000  0.90962000  0.64478000  1
  C  C178  1  0.01504000  0.58601000  0.96831000  1
  C  C179  1  0.43064000  0.08601000  0.46831000  1
  C  C180  1  0.39534000  0.59083000  0.96289000  1
  C  C181  1  0.05094000  0.09083000  0.46289000  1
  C  C182  1  0.77252000  0.49866000  0.04830000  1
  C  C183  1  0.68052000  0.99866000  0.54830000  1
  C  C184  1  0.40598000  0.32655000  0.21929000  1
  C  C185  1  0.04818000  0.82655000  0.71929000  1
  C  C186  1  0.82371000  0.62619000  0.91819000  1
  C  C187  1  0.63191000  0.12619000  0.41819000  1
  C  C188  1  0.11532000  0.62154000  0.91802000  1
  C  C189  1  0.34512000  0.12154000  0.41802000  1
  C  C190  1  0.12662000  0.45243000  0.08213000  1
  C  C191  1  0.33882000  0.95243000  0.58213000  1
  C  C192  1  0.44735000  0.35007000  0.18183000  1
  C  C193  1  0.02075000  0.85007000  0.68183000  1
  C  C194  1  0.07972000  0.54647000  0.96969000  1
  C  C195  1  0.40412000  0.04647000  0.46969000  1
  C  C196  1  0.35248000  0.44904000  0.06520000  1
  C  C197  1  0.13328000  0.94904000  0.56520000  1
  C  C198  1  0.83706000  0.45667000  0.05421000  1
  C  C199  1  0.65206000  0.95667000  0.55421000  1
  C  C200  1  0.88365000  0.62834000  0.87756000  1
  C  C201  1  0.61045000  0.12834000  0.37756000  1
  C  C202  1  0.81862000  0.41906000  0.08270000  1
  C  C203  1  0.67962000  0.91906000  0.58270000  1
  C  C204  1  0.18138000  0.58094000  0.91730000  1
  C  C205  1  0.32038000  0.08094000  0.41730000  1
  C  C206  1  0.11635000  0.37166000  0.12244000  1
  C  C207  1  0.38955000  0.87166000  0.62244000  1
  C  C208  1  0.16294000  0.54333000  0.94579000  1
  C  C209  1  0.34794000  0.04333000  0.44579000  1
  C  C210  1  0.64752000  0.55096000  0.93480000  1
  C  C211  1  0.86672000  0.05096000  0.43480000  1
  C  C212  1  0.92028000  0.45353000  0.03031000  1
  C  C213  1  0.59588000  0.95353000  0.53031000  1
  C  C214  1  0.55265000  0.64993000  0.81817000  1
  C  C215  1  0.97925000  0.14993000  0.31817000  1
  C  C216  1  0.87338000  0.54757000  0.91787000  1
  C  C217  1  0.66118000  0.04757000  0.41787000  1
  C  C218  1  0.88468000  0.37846000  0.08198000  1
  C  C219  1  0.65488000  0.87846000  0.58198000  1
  C  C220  1  0.17629000  0.37381000  0.08181000  1
  C  C221  1  0.36809000  0.87381000  0.58181000  1
  C  C222  1  0.59402000  0.67345000  0.78071000  1
  C  C223  1  0.95182000  0.17345000  0.28071000  1
  C  C224  1  0.22748000  0.50134000  0.95170000  1
  C  C225  1  0.31948000  0.00134000  0.45170000  1
  C  C226  1  0.60466000  0.40917000  0.03711000  1
  C  C227  1  0.94906000  0.90917000  0.53711000  1
  C  C228  1  0.98496000  0.41399000  0.03169000  1
  C  C229  1  0.56936000  0.91399000  0.53169000  1
  C  C230  1  0.93870000  0.59038000  0.85522000  1
  C  C231  1  0.61570000  0.09038000  0.35522000  1
  C  C232  1  0.46152000  0.59559000  0.84517000  1
  C  C233  1  0.09772000  0.09559000  0.34517000  1
  C  C234  1  0.96498000  0.37719000  0.05745000  1
  C  C235  1  0.60038000  0.87719000  0.55745000  1
  C  C236  1  0.24092000  0.26363000  0.16833000  1
  C  C237  1  0.32712000  0.76363000  0.66833000  1
  C  C238  1  0.50785000  0.62112000  0.80878000  1
  C  C239  1  0.06225000  0.12112000  0.30878000  1
  C  C240  1  0.93410000  0.54810000  0.87670000  1
  C  C241  1  0.64110000  0.04810000  0.37670000  1
  C  C242  1  0.66129000  0.42730000  0.99712000  1
  C  C243  1  0.91429000  0.92730000  0.49712000  1
  C  C244  1  0.64185000  0.52105000  0.89925000  1
  C  C245  1  0.93785000  0.02105000  0.39925000  1
  C  C246  1  0.31260000  0.27256000  0.13924000  1
  C  C247  1  0.27560000  0.77256000  0.63924000  1
  C  C248  1  0.59075000  0.66833000  0.73637000  1
  C  C249  1  0.00455000  0.16833000  0.23637000  1
  C  C250  1  0.00660000  0.59131000  0.81089000  1
  C  C251  1  0.59120000  0.09131000  0.31089000  1
  C  C252  1  0.08390000  0.58330000  0.81730000  1
  C  C253  1  0.51550000  0.08330000  0.31730000  1
  C  C254  1  0.23253000  0.21929000  0.17345000  1
  C  C255  1  0.37473000  0.71929000  0.67345000  1
  C  C256  1  0.68971000  0.30418000  0.08300000  1
  C  C257  1  0.92311000  0.80418000  0.58300000  1
  C  C258  1  0.73221000  0.55284000  0.82954000  1
  C  C259  1  0.88541000  0.05284000  0.32954000  1
  C  C260  1  0.50784000  0.61610000  0.76302000  1
  C  C261  1  0.11304000  0.11610000  0.26302000  1
  C  C262  1  0.23129000  0.58852000  0.78350000  1
  C  C263  1  0.39669000  0.08852000  0.28350000  1
  C  C264  1  0.72166000  0.51038000  0.85890000  1
  C  C265  1  0.90906000  0.01038000  0.35890000  1
  C  C266  1  0.74840000  0.38950000  0.97830000  1
  C  C267  1  0.88380000  0.88950000  0.47830000  1
  C  C268  1  0.54816000  0.63924000  0.72744000  1
  C  C269  1  0.08516000  0.13924000  0.22744000  1
  C  C270  1  0.43863000  0.45255000  0.91359000  1
  C  C271  1  0.19523000  0.95255000  0.41359000  1
  C  C272  1  0.41152000  0.33795000  0.02661000  1
  C  C273  1  0.22392000  0.83795000  0.52661000  1
  C  C274  1  0.15849000  0.58468000  0.77654000  1
  C  C275  1  0.48029000  0.08468000  0.27654000  1
  C  C276  1  0.37606000  0.23698000  0.11610000  1
  C  C277  1  0.27086000  0.73698000  0.61610000  1
  C  C278  1  0.76096000  0.26909000  0.08219000  1
  C  C279  1  0.88776000  0.76909000  0.58219000  1
  C  C280  1  0.81610000  0.40830000  0.93750000  1
  C  C281  1  0.83810000  0.90830000  0.43750000  1
  C  C282  1  0.81930000  0.58590000  0.75970000  1
  C  C283  1  0.83510000  0.08590000  0.25970000  1
  C  C284  1  0.61222000  0.25365000  0.08911000  1
  C  C285  1  0.04502000  0.75365000  0.58911000  1
  C  C286  1  0.29867000  0.58911000  0.74635000  1
  C  C287  1  0.36587000  0.08911000  0.24635000  1
  C  C288  1  0.29742000  0.18183000  0.14993000  1
  C  C289  1  0.37082000  0.68183000  0.64993000  1
  C  C290  1  0.50942000  0.41217000  0.91899000  1
  C  C291  1  0.15942000  0.91217000  0.41899000  1
  C  C292  1  0.81185000  0.54235000  0.78855000  1
  C  C293  1  0.85725000  0.04235000  0.28855000  1
  C  C294  1  0.09480000  0.24030000  0.08590000  1
  C  C295  1  0.57900000  0.74030000  0.58590000  1
  C  C296  1  0.15685000  0.58219000  0.73091000  1
  C  C297  1  0.53005000  0.08219000  0.23091000  1
  C  C298  1  0.37103000  0.19122000  0.12112000  1
  C  C299  1  0.31663000  0.69122000  0.62112000  1
  C  C300  1  0.75683000  0.22346000  0.08468000  1
  C  C301  1  0.93503000  0.72346000  0.58468000  1
  C  C302  1  0.38742000  0.30970000  0.99766000  1
  C  C303  1  0.30522000  0.80970000  0.49766000  1
  C  C304  1  0.88980000  0.37740000  0.92780000  1
  C  C305  1  0.80500000  0.87740000  0.42780000  1
  C  C306  1  0.68019000  0.21650000  0.08852000  1
  C  C307  1  0.01479000  0.71650000  0.58852000  1
  C  C308  1  0.33053000  0.32821000  0.97133000  1
  C  C309  1  0.36993000  0.82821000  0.47133000  1
  C  C310  1  0.93560000  0.40950000  0.88690000  1
  C  C311  1  0.76800000  0.90950000  0.38690000  1
  C  C312  1  0.90209000  0.18911000  0.09131000  1
  C  C313  1  0.81749000  0.68911000  0.59131000  1
  C  C314  1  0.22729000  0.58300000  0.69582000  1
  C  C315  1  0.49389000  0.08300000  0.19582000  1
  C  C316  1  0.83280000  0.18270000  0.08330000  1
  C  C317  1  0.90120000  0.68270000  0.58330000  1
  C  C318  1  0.42105000  0.26153000  0.99837000  1
  C  C319  1  0.31905000  0.76153000  0.49837000  1
  C  C320  1  0.55274000  0.38469000  0.87483000  1
  C  C321  1  0.18774000  0.88469000  0.37483000  1
  C  C322  1  0.14580000  0.21145000  0.04235000  1
  C  C323  1  0.60040000  0.71145000  0.54235000  1
  C  C324  1  0.76121000  0.62244000  0.62834000  1
  C  C325  1  0.98801000  0.12244000  0.12834000  1
  C  C326  1  0.44289000  0.15483000  0.09559000  1
  C  C327  1  0.30669000  0.65483000  0.59559000  1
  C  C328  1  0.31280000  0.29766000  0.94514000  1
  C  C329  1  0.44440000  0.79766000  0.44514000  1
  C  C330  1  0.62398000  0.47408000  0.76796000  1
  C  C331  1  0.13398000  0.97408000  0.26796000  1
  C  C332  1  0.58058000  0.49837000  0.73847000  1
  C  C333  1  0.18258000  0.99837000  0.23847000  1
  C  C334  1  0.97092000  0.14478000  0.09038000  1
  C  C335  1  0.79392000  0.64478000  0.59038000  1
  C  C336  1  0.21495000  0.17046000  0.05284000  1
  C  C337  1  0.56175000  0.67046000  0.55284000  1
  C  C338  1  0.49498000  0.36119000  0.86185000  1
  C  C339  1  0.28198000  0.86119000  0.36185000  1
  C  C340  1  0.74190000  0.58181000  0.62619000  1
  C  C341  1  0.05010000  0.08181000  0.12619000  1
  C  C342  1  0.40194000  0.23204000  0.97408000  1
  C  C343  1  0.39194000  0.73204000  0.47408000  1
  C  C344  1  0.03334000  0.58198000  0.62154000  1
  C  C345  1  0.76314000  0.08198000  0.12154000  1
  C  C346  1  0.34819000  0.25026000  0.94716000  1
  C  C347  1  0.45439000  0.75026000  0.44716000  1
  C  C348  1  0.70465000  0.44716000  0.74974000  1
  C  C349  1  0.09845000  0.94716000  0.24974000  1
  C  C350  1  0.56187000  0.52661000  0.66205000  1
  C  C351  1  0.24947000  0.02661000  0.16205000  1
  C  C352  1  0.61492000  0.49766000  0.69030000  1
  C  C353  1  0.19712000  0.99766000  0.19030000  1
  C  C354  1  0.97757000  0.55745000  0.62281000  1
  C  C355  1  0.84217000  0.05745000  0.12281000  1
  C  C356  1  0.01780000  0.12330000  0.04810000  1
  C  C357  1  0.81080000  0.62330000  0.54810000  1
  C  C358  1  0.73768000  0.08270000  0.08094000  1
  C  C359  1  0.09868000  0.58270000  0.58094000  1
  C  C360  1  0.26796000  0.14110000  0.01038000  1
  C  C361  1  0.58056000  0.64110000  0.51038000  1
  C  C362  1  0.53920000  0.33000000  0.82000000  1
  C  C363  1  0.31080000  0.83000000  0.32000000  1
  C  C364  1  0.74206000  0.44514000  0.70234000  1
  C  C365  1  0.11046000  0.94514000  0.20234000  1
  C  C366  1  0.69814000  0.47133000  0.67179000  1
  C  C367  1  0.15874000  0.97133000  0.17179000  1
  C  C368  1  0.07905000  0.08213000  0.04757000  1
  C  C369  1  0.79125000  0.58213000  0.54757000  1
  C  C370  1  0.35823000  0.53711000  0.59083000  1
  C  C371  1  0.51383000  0.03711000  0.09083000  1
  C  C372  1  0.33710000  0.10075000  0.02105000  1
  C  C373  1  0.54110000  0.60075000  0.52105000  1
  C  C374  1  0.98335000  0.53169000  0.58601000  1
  C  C375  1  0.89895000  0.03169000  0.08601000  1
  C  C376  1  0.30152000  0.06520000  0.05096000  1
  C  C377  1  0.58232000  0.56520000  0.55096000  1
  C  C378  1  0.48360000  0.30620000  0.80780000  1
  C  C379  1  0.40240000  0.80620000  0.30780000  1
  C  C380  1  0.79373000  0.05421000  0.04333000  1
  C  C381  1  0.10873000  0.55421000  0.54333000  1
  C  C382  1  0.27330000  0.47830000  0.61050000  1
  C  C383  1  0.63790000  0.97830000  0.11050000  1
  C  C384  1  0.04941000  0.53031000  0.54647000  1
  C  C385  1  0.87381000  0.03031000  0.04647000  1
  C  C386  1  0.34159000  0.49712000  0.57270000  1
  C  C387  1  0.58859000  0.99712000  0.07270000  1
  C  C388  1  0.18240000  0.42780000  0.62260000  1
  C  C389  1  0.76720000  0.92780000  0.12260000  1
  C  C390  1  0.77118000  0.04830000  0.00134000  1
  C  C391  1  0.17918000  0.54830000  0.50134000  1
  C  C392  1  0.60882000  0.08641000  0.95255000  1
  C  C393  1  0.35222000  0.58641000  0.45255000  1
  C  C394  1  0.24640000  0.43750000  0.59170000  1
  C  C395  1  0.72440000  0.93750000  0.09170000  1
  C  C396  1  0.15490000  0.11310000  0.90950000  1
  C  C397  1  0.82250000  0.61310000  0.40950000  1
  C  C398  1  0.63080000  0.18000000  0.83000000  1
  C  C399  1  0.35920000  0.68000000  0.33000000  1
  C  C400  1  0.56257000  0.12517000  0.88469000  1
  C  C401  1  0.42757000  0.62517000  0.38469000  1
  C  C402  1  0.57159000  0.41899000  0.58783000  1
  C  C403  1  0.42159000  0.91899000  0.08783000  1
  C  C404  1  0.70860000  0.30780000  0.69380000  1
  C  C405  1  0.28980000  0.80780000  0.19380000  1
  C  C406  1  0.64317000  0.36185000  0.63881000  1
  C  C407  1  0.35617000  0.86185000  0.13881000  1
  H  H408  1  0.47930000  0.57160000  0.42340000  1
  H  H409  1  0.52570000  0.07160000  0.92340000  1
  H  H410  1  0.71100000  0.90940000  0.08500000  1
  H  H411  1  0.29460000  0.40940000  0.58500000  1
  H  H412  1  0.76900000  0.55250000  0.43750000  1
  H  H413  1  0.24100000  0.05250000  0.93750000  1
  H  H414  1  0.25210000  0.81570000  0.17370000  1
  H  H415  1  0.75850000  0.31570000  0.67370000  1
  H  H416  1  0.89470000  0.88080000  0.10200000  1
  H  H417  1  0.12250000  0.38080000  0.60200000  1
  H  H418  1  0.48200000  0.62130000  0.36090000  1
  H  H419  1  0.53580000  0.12130000  0.86090000  1
  H  H420  1  0.41430000  0.67370000  0.30650000  1
  H  H421  1  0.60550000  0.17370000  0.80650000  1
  H  H422  1  0.30240000  0.77460000  0.20040000  1
  H  H423  1  0.72260000  0.27460000  0.70040000  1
  H  H424  1  0.33210000  0.85540000  0.11480000  1
  H  H425  1  0.69770000  0.35540000  0.61480000  1
  H  H426  1  0.94570000  0.48750000  0.47930000  1
  H  H427  1  0.08750000  0.98750000  0.97930000  1
  H  H428  1  0.60550000  0.52800000  0.43640000  1
  H  H429  1  0.43010000  0.02800000  0.93640000  1
  H  H430  1  0.85880000  0.89710000  0.05830000  1
  H  H431  1  0.18580000  0.39710000  0.55830000  1
  H  H432  1  0.36100000  0.61160000  0.34260000  1
  H  H433  1  0.68480000  0.11160000  0.84260000  1
  H  H434  1  0.31070000  0.67480000  0.27720000  1
  H  H435  1  0.73730000  0.17480000  0.77720000  1
  H  H436  1  0.82760000  0.85850000  0.09230000  1
  H  H437  1  0.22160000  0.35850000  0.59230000  1
  H  H438  1  0.67840000  0.49310000  0.45510000  1
  H  H439  1  0.37340000  0.99310000  0.95510000  1
  H  H440  1  0.43130000  0.55620000  0.39180000  1
  H  H441  1  0.62070000  0.05620000  0.89180000  1
  H  H442  1  0.40920000  0.79330000  0.15130000  1
  H  H443  1  0.64620000  0.29330000  0.65130000  1
  H  H444  1  0.47650000  0.84950000  0.09450000  1
  H  H445  1  0.57950000  0.34950000  0.59450000  1
  H  H446  1  0.80440000  0.58430000  0.34810000  1
  H  H447  1  0.26320000  0.08430000  0.84810000  1
  H  H448  1  0.49720000  0.70040000  0.22540000  1
  H  H449  1  0.57700000  0.20040000  0.72540000  1
  H  H450  1  0.62420000  0.91390000  0.00830000  1
  H  H451  1  0.45360000  0.41390000  0.50830000  1
  H  H452  1  0.86890000  0.54580000  0.37100000  1
  H  H453  1  0.21430000  0.04580000  0.87100000  1
  H  H454  1  0.88920000  0.93220000  0.98140000  1
  H  H455  1  0.19720000  0.43220000  0.48140000  1
  H  H456  1  0.51450000  0.72280000  0.17480000  1
  H  H457  1  0.58790000  0.22280000  0.67480000  1
  H  H458  1  0.05670000  0.48470000  0.41250000  1
  H  H459  1  0.04610000  0.98470000  0.91250000  1
  H  H460  1  0.70440000  0.53360000  0.36280000  1
  H  H461  1  0.39920000  0.03360000  0.86280000  1
  H  H462  1  0.20240000  0.57400000  0.30960000  1
  H  H463  1  0.91400000  0.07400000  0.80960000  1
  H  H464  1  0.77750000  0.49570000  0.37830000  1
  H  H465  1  0.34850000  0.99570000  0.87830000  1
  H  H466  1  0.76890000  0.87120000  0.00200000  1
  H  H467  1  0.35790000  0.37120000  0.50200000  1
  H  H468  1  0.41200000  0.69350000  0.17370000  1
  H  H469  1  0.72080000  0.19350000  0.67370000  1
  H  H470  1  0.57420000  0.67370000  0.18430000  1
  H  H471  1  0.43950000  0.65130000  0.20670000  1
  H  H472  1  0.56780000  0.17370000  0.68430000  1
  H  H473  1  0.70250000  0.15130000  0.70670000  1
  H  H474  1  0.70610000  0.83920000  0.01380000  1
  H  H475  1  0.44090000  0.33920000  0.51380000  1
  H  H476  1  0.63010000  0.88740000  0.96300000  1
  H  H477  1  0.51950000  0.38740000  0.46300000  1
  H  H478  1  0.99230000  0.86320000  0.98000000  1
  H  H479  1  0.16450000  0.36320000  0.48000000  1
  H  H480  1  0.66500000  0.76990000  0.07030000  1
  H  H481  1  0.49480000  0.26990000  0.57030000  1
  H  H482  1  0.57460000  0.80040000  0.02440000  1
  H  H483  1  0.60060000  0.30040000  0.52440000  1
  H  H484  1  0.26470000  0.57030000  0.23010000  1
  H  H485  1  0.93490000  0.07030000  0.73010000  1
  H  H486  1  0.06680000  0.44180000  0.34980000  1
  H  H487  1  0.14160000  0.94180000  0.84980000  1
  H  H488  1  0.14950000  0.83170000  0.94770000  1
  H  H489  1  0.07110000  0.33170000  0.44770000  1
  H  H490  1  0.28280000  0.43230000  0.34610000  1
  H  H491  1  0.93880000  0.93230000  0.84610000  1
  H  H492  1  0.81140000  0.84920000  0.92320000  1
  H  H493  1  0.41620000  0.34920000  0.42320000  1
  H  H494  1  0.89200000  0.80040000  0.96980000  1
  H  H495  1  0.33780000  0.30040000  0.46980000  1
  H  H496  1  0.52740000  0.65740000  0.11160000  1
  H  H497  1  0.70360000  0.15740000  0.61160000  1
  H  H498  1  0.72360000  0.69040000  0.07400000  1
  H  H499  1  0.51200000  0.19040000  0.57400000  1
  H  H500  1  0.39670000  0.63910000  0.12130000  1
  H  H501  1  0.84290000  0.13910000  0.62130000  1
  H  H502  1  0.55310000  0.61480000  0.14460000  1
  H  H503  1  0.68750000  0.11480000  0.64460000  1
  H  H504  1  0.77480000  0.41840000  0.33520000  1
  H  H505  1  0.47160000  0.91840000  0.83520000  1
  H  H506  1  0.97190000  0.40130000  0.35190000  1
  H  H507  1  0.27490000  0.90130000  0.85190000  1
  H  H508  1  0.74820000  0.81750000  0.93450000  1
  H  H509  1  0.49980000  0.31750000  0.43450000  1
  H  H510  1  0.82820000  0.76880000  0.98180000  1
  H  H511  1  0.42120000  0.26880000  0.48180000  1
  H  H512  1  0.42900000  0.59450000  0.15050000  1
  H  H513  1  0.82600000  0.09450000  0.65050000  1
  H  H514  1  0.11130000  0.65190000  0.08430000  1
  H  H515  1  0.15250000  0.15190000  0.58430000  1
  H  H516  1  0.54130000  0.75100000  0.98340000  1
  H  H517  1  0.72430000  0.25100000  0.48340000  1
  H  H518  1  0.18590000  0.84020000  0.89400000  1
  H  H519  1  0.07990000  0.34020000  0.39400000  1
  H  H520  1  0.08010000  0.59230000  0.14150000  1
  H  H521  1  0.18610000  0.09230000  0.64150000  1
  H  H522  1  0.47530000  0.48340000  0.24900000  1
  H  H523  1  0.79230000  0.98340000  0.74900000  1
  H  H524  1  0.40100000  0.52440000  0.19960000  1
  H  H525  1  0.87500000  0.02440000  0.69960000  1
  H  H526  1  0.32580000  0.81400000  0.90920000  1
  H  H527  1  0.95100000  0.31400000  0.40920000  1
  H  H528  1  0.07590000  0.78950000  0.93230000  1
  H  H529  1  0.20230000  0.28950000  0.43230000  1
  H  H530  1  0.00330000  0.60200000  0.11920000  1
  H  H531  1  0.27550000  0.10200000  0.61920000  1
  H  H532  1  0.19000000  0.48180000  0.23120000  1
  H  H533  1  0.09700000  0.98180000  0.73120000  1
  H  H534  1  0.24900000  0.36470000  0.34210000  1
  H  H535  1  0.04420000  0.86470000  0.84210000  1
  H  H536  1  0.89230000  0.42000000  0.27580000  1
  H  H537  1  0.41190000  0.92000000  0.77580000  1
  H  H538  1  0.12340000  0.41900000  0.26020000  1
  H  H539  1  0.19740000  0.91900000  0.76020000  1
  H  H540  1  0.20400000  0.58500000  0.09060000  1
  H  H541  1  0.12040000  0.08500000  0.59060000  1
  H  H542  1  0.08530000  0.62900000  0.04580000  1
  H  H543  1  0.23990000  0.12900000  0.54580000  1
  H  H544  1  0.28010000  0.51380000  0.16080000  1
  H  H545  1  0.04530000  0.01380000  0.66080000  1
  H  H546  1  0.11410000  0.79610000  0.87810000  1
  H  H547  1  0.21170000  0.29610000  0.37810000  1
  H  H548  1  0.26200000  0.63720000  0.03360000  1
  H  H549  1  0.06720000  0.13720000  0.53360000  1
  H  H550  1  0.13820000  0.46980000  0.19960000  1
  H  H551  1  0.19240000  0.96980000  0.69960000  1
  H  H552  1  0.91790000  0.78050000  0.88790000  1
  H  H553  1  0.41370000  0.28050000  0.38790000  1
  H  H554  1  0.45300000  0.36460000  0.30320000  1
  H  H555  1  0.87920000  0.86460000  0.80320000  1
  H  H556  1  0.22003333  0.40746667  0.25926667  1
  H  H557  1  0.11323333  0.90746667  0.75926667  1
  H  H558  1  0.51250000  0.60820000  0.05620000  1
  H  H559  1  0.82310000  0.10820000  0.55620000  1
  H  H560  1  0.08290000  0.55830000  0.10290000  1
  H  H561  1  0.25590000  0.05830000  0.60290000  1
  H  H562  1  0.57500000  0.75660000  0.90400000  1
  H  H563  1  0.76440000  0.25660000  0.40400000  1
  H  H564  1  0.44030000  0.75210000  0.90790000  1
  H  H565  1  0.89970000  0.25210000  0.40790000  1
  H  H566  1  0.95760000  0.73980000  0.91900000  1
  H  H567  1  0.38360000  0.23980000  0.41900000  1
  H  H568  1  0.65180000  0.40790000  0.24790000  1
  H  H569  1  0.69240000  0.90790000  0.74790000  1
  H  H570  1  0.87250000  0.74070000  0.90750000  1
  H  H571  1  0.44910000  0.57660000  0.07160000  1
  H  H572  1  0.47930000  0.24070000  0.40750000  1
  H  H573  1  0.90270000  0.07660000  0.57160000  1
  H  H574  1  0.52100000  0.40400000  0.24340000  1
  H  H575  1  0.83160000  0.90400000  0.74340000  1
  H  H576  1  0.18770000  0.72420000  0.92000000  1
  H  H577  1  0.16810000  0.22420000  0.42000000  1
  H  H578  1  0.99180000  0.43230000  0.21050000  1
  H  H579  1  0.36540000  0.93230000  0.71050000  1
  H  H580  1  0.22910000  0.50200000  0.12880000  1
  H  H581  1  0.14010000  0.00200000  0.62880000  1
  H  H582  1  0.22680000  0.62170000  0.99570000  1
  H  H583  1  0.15580000  0.12170000  0.49570000  1
  H  H584  1  0.31730000  0.43450000  0.18250000  1
  H  H585  1  0.06570000  0.93450000  0.68250000  1
  H  H586  1  0.02770000  0.48000000  0.13680000  1
  H  H587  1  0.35550000  0.98000000  0.63680000  1
  H  H588  1  0.90280000  0.44770000  0.16830000  1
  H  H589  1  0.48120000  0.94770000  0.66830000  1
  H  H590  1  0.17850000  0.56250000  0.05250000  1
  H  H591  1  0.20650000  0.06250000  0.55250000  1
  H  H592  1  0.19420000  0.38790000  0.21950000  1
  H  H593  1  0.19840000  0.88790000  0.71950000  1
  H  H594  1  0.38190000  0.31510000  0.28830000  1
  H  H595  1  0.01470000  0.81510000  0.78830000  1
  H  H596  1  0.76500000  0.40920000  0.18600000  1
  H  H597  1  0.63980000  0.90920000  0.68600000  1
  H  H598  1  0.36750000  0.50830000  0.08610000  1
  H  H599  1  0.03810000  0.00830000  0.58610000  1
  H  H600  1  0.81760000  0.78610000  0.80690000  1
  H  H601  1  0.58940000  0.28610000  0.30690000  1
  H  H602  1  0.99140000  0.65020000  0.94180000  1
  H  H603  1  0.41660000  0.15020000  0.44180000  1
  H  H604  1  0.36650000  0.56360000  0.02800000  1
  H  H605  1  0.04190000  0.06360000  0.52800000  1
  H  H606  1  0.78490000  0.65390000  0.93230000  1
  H  H607  1  0.62890000  0.15390000  0.43230000  1
  H  H608  1  0.30680000  0.66480000  0.91840000  1
  H  H609  1  0.11000000  0.16480000  0.41840000  1
  H  H610  1  0.00780000  0.37810000  0.20390000  1
  H  H611  1  0.41020000  0.87810000  0.70390000  1
  H  H612  1  0.40690000  0.46300000  0.11260000  1
  H  H613  1  0.01750000  0.96300000  0.61260000  1
  H  H614  1  0.26540000  0.42320000  0.15080000  1
  H  H615  1  0.16060000  0.92320000  0.65080000  1
  H  H616  1  0.95860000  0.58750000  0.98470000  1
  H  H617  1  0.46920000  0.08750000  0.48470000  1
  H  H618  1  0.68240000  0.69680000  0.86460000  1
  H  H619  1  0.75620000  0.19680000  0.36460000  1
  H  H620  1  0.92010000  0.39400000  0.15980000  1
  H  H621  1  0.52610000  0.89400000  0.65980000  1
  H  H622  1  0.12680000  0.64810000  0.90130000  1
  H  H623  1  0.32380000  0.14810000  0.40130000  1
  H  H624  1  0.12940000  0.48140000  0.06780000  1
  H  H625  1  0.32140000  0.98140000  0.56780000  1
  H  H626  1  0.32850000  0.54490000  0.99310000  1
  H  H627  1  0.13350000  0.04490000  0.49310000  1
  H  H628  1  0.80300000  0.71170000  0.81510000  1
  H  H629  1  0.67020000  0.21170000  0.31510000  1
  H  H630  1  0.88630000  0.65790000  0.86470000  1
  H  H631  1  0.59110000  0.15790000  0.36470000  1
  H  H632  1  0.37550000  0.30690000  0.21390000  1
  H  H633  1  0.10370000  0.80690000  0.71390000  1
  H  H634  1  0.06680000  0.52070000  0.98750000  1
  H  H635  1  0.42500000  0.02070000  0.48750000  1
  H  H636  1  0.93320000  0.47930000  0.01250000  1
  H  H637  1  0.57500000  0.97930000  0.51250000  1
  H  H638  1  0.62450000  0.69310000  0.78610000  1
  H  H639  1  0.89630000  0.19310000  0.28610000  1
  H  H640  1  0.11370000  0.34210000  0.13530000  1
  H  H641  1  0.40890000  0.84210000  0.63530000  1
  H  H642  1  0.19700000  0.28830000  0.18490000  1
  H  H643  1  0.32980000  0.78830000  0.68490000  1
  H  H644  1  0.67150000  0.45510000  0.00690000  1
  H  H645  1  0.86650000  0.95510000  0.50690000  1
  H  H646  1  0.87060000  0.51860000  0.93220000  1
  H  H647  1  0.67860000  0.01860000  0.43220000  1
  H  H648  1  0.87320000  0.35190000  0.09870000  1
  H  H649  1  0.67620000  0.85190000  0.59870000  1
  H  H650  1  0.07990000  0.60600000  0.84020000  1
  H  H651  1  0.47390000  0.10600000  0.34020000  1
  H  H652  1  0.31760000  0.30320000  0.13540000  1
  H  H653  1  0.24380000  0.80320000  0.63540000  1
  H  H654  1  0.04140000  0.41250000  0.01530000  1
  H  H655  1  0.53080000  0.91250000  0.51530000  1
  H  H656  1  0.73460000  0.57680000  0.84920000  1
  H  H657  1  0.83940000  0.07680000  0.34920000  1
  H  H658  1  0.59310000  0.53700000  0.88740000  1
  H  H659  1  0.98250000  0.03700000  0.38740000  1
  H  H660  1  0.99220000  0.62190000  0.79610000  1
  H  H661  1  0.58980000  0.12190000  0.29610000  1
  H  H662  1  0.69320000  0.33520000  0.08160000  1
  H  H663  1  0.89000000  0.83520000  0.58160000  1
  H  H664  1  0.21510000  0.34610000  0.06770000  1
  H  H665  1  0.37110000  0.84610000  0.56770000  1
  H  H666  1  0.63350000  0.43640000  0.97200000  1
  H  H667  1  0.95810000  0.93640000  0.47200000  1
  H  H668  1  0.00860000  0.34980000  0.05820000  1
  H  H669  1  0.58340000  0.84980000  0.55820000  1
  H  H670  1  0.18240000  0.21390000  0.19310000  1
  H  H671  1  0.41060000  0.71390000  0.69310000  1
  H  H672  1  0.63250000  0.49170000  0.91390000  1
  H  H673  1  0.96190000  0.99170000  0.41390000  1
  H  H674  1  0.23500000  0.59080000  0.81400000  1
  H  H675  1  0.36020000  0.09080000  0.31400000  1
  H  H676  1  0.61810000  0.68490000  0.71170000  1
  H  H677  1  0.98530000  0.18490000  0.21170000  1
  H  H678  1  0.80580000  0.61210000  0.78050000  1
  H  H679  1  0.80160000  0.11210000  0.28050000  1
  H  H680  1  0.82150000  0.43750000  0.94750000  1
  H  H681  1  0.79350000  0.93750000  0.44750000  1
  H  H682  1  0.09720000  0.55230000  0.83170000  1
  H  H683  1  0.51880000  0.05230000  0.33170000  1
  H  H684  1  0.97230000  0.52000000  0.86320000  1
  H  H685  1  0.64450000  0.02000000  0.36320000  1
  H  H686  1  0.68270000  0.56550000  0.81750000  1
  H  H687  1  0.93430000  0.06550000  0.31750000  1
  H  H688  1  0.77320000  0.37830000  0.00430000  1
  H  H689  1  0.84420000  0.87830000  0.50430000  1
  H  H690  1  0.77090000  0.49800000  0.87120000  1
  H  H691  1  0.85990000  0.99800000  0.37120000  1
  H  H692  1  0.00820000  0.56770000  0.78950000  1
  H  H693  1  0.63460000  0.06770000  0.28950000  1
  H  H694  1  0.81230000  0.27580000  0.08000000  1
  H  H695  1  0.83190000  0.77580000  0.58000000  1
  H  H696  1  0.47900000  0.59600000  0.75660000  1
  H  H697  1  0.16840000  0.09600000  0.25660000  1
  H  H698  1  0.55090000  0.42340000  0.92840000  1
  H  H699  1  0.12750000  0.25930000  0.09250000  1
  H  H700  1  0.09730000  0.92340000  0.42840000  1
  H  H701  1  0.52070000  0.75930000  0.59250000  1
  H  H702  1  0.34820000  0.59210000  0.75210000  1
  H  H703  1  0.30760000  0.09210000  0.25210000  1
  H  H704  1  0.04240000  0.26020000  0.08100000  1
  H  H705  1  0.61640000  0.76020000  0.58100000  1
  H  H706  1  0.55970000  0.24790000  0.09210000  1
  H  H707  1  0.10030000  0.74790000  0.59210000  1
  H  H708  1  0.42500000  0.24340000  0.09600000  1
  H  H709  1  0.23560000  0.74340000  0.59600000  1
  H  H710  1  0.91710000  0.44170000  0.89710000  1
  H  H711  1  0.74410000  0.94170000  0.39710000  1
  H  H712  1  0.48750000  0.39180000  0.94380000  1
  H  H713  1  0.17690000  0.89180000  0.44380000  1
  H  H714  1  0.78000000  0.59250000  0.74070000  1
  H  H715  1  0.88680000  0.09250000  0.24070000  1
  H  H716  1  0.54700000  0.63540000  0.69680000  1
  H  H717  1  0.12080000  0.13540000  0.19680000  1
  H  H718  1  0.08210000  0.21950000  0.11210000  1
  H  H719  1  0.58630000  0.71950000  0.61210000  1
  H  H720  1  0.86180000  0.53020000  0.80040000  1
  H  H721  1  0.80760000  0.03020000  0.30040000  1
  H  H722  1  0.73800000  0.36280000  0.96640000  1
  H  H723  1  0.93280000  0.86280000  0.46640000  1
  H  H724  1  0.88590000  0.20390000  0.12190000  1
  H  H725  1  0.78830000  0.70390000  0.62190000  1
  H  H726  1  0.71990000  0.48620000  0.83920000  1
  H  H727  1  0.95470000  0.98620000  0.33920000  1
  H  H728  1  0.91470000  0.37100000  0.95420000  1
  H  H729  1  0.76010000  0.87100000  0.45420000  1
  H  H730  1  0.79600000  0.41500000  0.90940000  1
  H  H731  1  0.87960000  0.91500000  0.40940000  1
  H  H732  1  0.87660000  0.58100000  0.73980000  1
  H  H733  1  0.80260000  0.08100000  0.23980000  1
  H  H734  1  0.10770000  0.58000000  0.72420000  1
  H  H735  1  0.58810000  0.08000000  0.22420000  1
  H  H736  1  0.75100000  0.63530000  0.65790000  1
  H  H737  1  0.95580000  0.13530000  0.15790000  1
  H  H738  1  0.81000000  0.51820000  0.76880000  1
  H  H739  1  0.90300000  0.01820000  0.26880000  1
  H  H740  1  0.99670000  0.39800000  0.88080000  1
  H  H741  1  0.72450000  0.89800000  0.38080000  1
  H  H742  1  0.92410000  0.21050000  0.06770000  1
  H  H743  1  0.79770000  0.71050000  0.56770000  1
  H  H744  1  0.67420000  0.18600000  0.09080000  1
  H  H745  1  0.04900000  0.68600000  0.59080000  1
  H  H746  1  0.59900000  0.47560000  0.80040000  1
  H  H747  1  0.12500000  0.97560000  0.30040000  1
  H  H748  1  0.52470000  0.51660000  0.75100000  1
  H  H749  1  0.20770000  0.01660000  0.25100000  1
  H  H750  1  0.91990000  0.40770000  0.85850000  1
  H  H751  1  0.81390000  0.90770000  0.35850000  1
  H  H752  1  0.81410000  0.15980000  0.10600000  1
  H  H753  1  0.92010000  0.65980000  0.60600000  1
  H  H754  1  0.45870000  0.24900000  0.01660000  1
  H  H755  1  0.27570000  0.74900000  0.51660000  1
  H  H756  1  0.88870000  0.34810000  0.91570000  1
  H  H757  1  0.84750000  0.84810000  0.41570000  1
  H  H758  1  0.57100000  0.40550000  0.84950000  1
  H  H759  1  0.17400000  0.90550000  0.34950000  1
  H  H760  1  0.17180000  0.23120000  0.01820000  1
  H  H761  1  0.57880000  0.73120000  0.51820000  1
  H  H762  1  0.25180000  0.18250000  0.06550000  1
  H  H763  1  0.50020000  0.68250000  0.56550000  1
  H  H764  1  0.02810000  0.59870000  0.64810000  1
  H  H765  1  0.72510000  0.09870000  0.14810000  1
  H  H766  1  0.22520000  0.58160000  0.66480000  1
  H  H767  1  0.52840000  0.08160000  0.16480000  1
  H  H768  1  0.44690000  0.38520000  0.85540000  1
  H  H769  1  0.31250000  0.88520000  0.35540000  1
  H  H770  1  0.60330000  0.36090000  0.87870000  1
  H  H771  1  0.15710000  0.86090000  0.37870000  1
  H  H772  1  0.27640000  0.30960000  0.92600000  1
  H  H773  1  0.48800000  0.80960000  0.42600000  1
  H  H774  1  0.47260000  0.34260000  0.88840000  1
  H  H775  1  0.29640000  0.84260000  0.38840000  1
  H  H776  1  0.10800000  0.19960000  0.03020000  1
  H  H777  1  0.66220000  0.69960000  0.53020000  1
  H  H778  1  0.18860000  0.15080000  0.07680000  1
  H  H779  1  0.58380000  0.65080000  0.57680000  1
  H  H780  1  0.71720000  0.56770000  0.65390000  1
  H  H781  1  0.06120000  0.06770000  0.15390000  1
  H  H782  1  0.85050000  0.16830000  0.05230000  1
  H  H783  1  0.92890000  0.66830000  0.55230000  1
  H  H784  1  0.93320000  0.55820000  0.65020000  1
  H  H785  1  0.85840000  0.05820000  0.15020000  1
  H  H786  1  0.73530000  0.42970000  0.76990000  1
  H  H787  1  0.06510000  0.92970000  0.26990000  1
  H  H788  1  0.42540000  0.19960000  0.97560000  1
  H  H789  1  0.39940000  0.69960000  0.47560000  1
  H  H790  1  0.33500000  0.23010000  0.92970000  1
  H  H791  1  0.50520000  0.73010000  0.42970000  1
  H  H792  1  0.00770000  0.13680000  0.02000000  1
  H  H793  1  0.83550000  0.63680000  0.52000000  1
  H  H794  1  0.36990000  0.11260000  0.03700000  1
  H  H795  1  0.48050000  0.61260000  0.53700000  1
  H  H796  1  0.29390000  0.16080000  0.98620000  1
  H  H797  1  0.55910000  0.66080000  0.48620000  1
  H  H798  1  0.56050000  0.34870000  0.79330000  1
  H  H799  1  0.42580000  0.32630000  0.81570000  1
  H  H800  1  0.29750000  0.84870000  0.29330000  1
  H  H801  1  0.43220000  0.82630000  0.31570000  1
  H  H802  1  0.58800000  0.30650000  0.82630000  1
  H  H803  1  0.27920000  0.80650000  0.32630000  1
  H  H804  1  0.23110000  0.12880000  0.99800000  1
  H  H805  1  0.64210000  0.62880000  0.49800000  1
  H  H806  1  0.22250000  0.50430000  0.62170000  1
  H  H807  1  0.65150000  0.00430000  0.12170000  1
  H  H808  1  0.79760000  0.42600000  0.69040000  1
  H  H809  1  0.08600000  0.92600000  0.19040000  1
  H  H810  1  0.29560000  0.46640000  0.63720000  1
  H  H811  1  0.60080000  0.96640000  0.13720000  1
  H  H812  1  0.94330000  0.51530000  0.58750000  1
  H  H813  1  0.95390000  0.01530000  0.08750000  1
  H  H814  1  0.48550000  0.27720000  0.82520000  1
  H  H815  1  0.41210000  0.77720000  0.32520000  1
  H  H816  1  0.11080000  0.06780000  0.01860000  1
  H  H817  1  0.80280000  0.56780000  0.51860000  1
  H  H818  1  0.13110000  0.45420000  0.62900000  1
  H  H819  1  0.78570000  0.95420000  0.12900000  1
  H  H820  1  0.37580000  0.08610000  0.99170000  1
  H  H821  1  0.54640000  0.58610000  0.49170000  1
  H  H822  1  0.50280000  0.29960000  0.77460000  1
  H  H823  1  0.42300000  0.79960000  0.27460000  1
  H  H824  1  0.19560000  0.41570000  0.65190000  1
  H  H825  1  0.73680000  0.91570000  0.15190000  1
  H  H826  1  0.52350000  0.15050000  0.90550000  1
  H  H827  1  0.42050000  0.65050000  0.40550000  1
  H  H828  1  0.59080000  0.20670000  0.84870000  1
  H  H829  1  0.35380000  0.70670000  0.34870000  1
  H  H830  1  0.56870000  0.44380000  0.60820000  1
  H  H831  1  0.37930000  0.94380000  0.10820000  1
  H  H832  1  0.32160000  0.50690000  0.54490000  1
  H  H833  1  0.62660000  0.00690000  0.04490000  1
  H  H834  1  0.17240000  0.14150000  0.90770000  1
  H  H835  1  0.77840000  0.64150000  0.40770000  1
  H  H836  1  0.68930000  0.32520000  0.72280000  1
  H  H837  1  0.26270000  0.82520000  0.22280000  1
  H  H838  1  0.63900000  0.38840000  0.65740000  1
  H  H839  1  0.31520000  0.88840000  0.15740000  1
  H  H840  1  0.14120000  0.10290000  0.94170000  1
  H  H841  1  0.81420000  0.60290000  0.44170000  1
  H  H842  1  0.39450000  0.47200000  0.56360000  1
  H  H843  1  0.56990000  0.97200000  0.06360000  1
  H  H844  1  0.05430000  0.51250000  0.52070000  1
  H  H845  1  0.91250000  0.01250000  0.02070000  1
  H  H846  1  0.66790000  0.14460000  0.88520000  1
  H  H847  1  0.30230000  0.64460000  0.38520000  1
  H  H848  1  0.69760000  0.22540000  0.79960000  1
  H  H849  1  0.27740000  0.72540000  0.29960000  1
  H  H850  1  0.58570000  0.32630000  0.69350000  1
  H  H851  1  0.39450000  0.82630000  0.19350000  1
  H  H852  1  0.51800000  0.37870000  0.63910000  1
  H  H853  1  0.46420000  0.87870000  0.13910000  1
  H  H854  1  0.10530000  0.11920000  0.89800000  1
  H  H855  1  0.87750000  0.61920000  0.39800000  1
  H  H856  1  0.74790000  0.18430000  0.82630000  1
  H  H857  1  0.24150000  0.68430000  0.32630000  1
  H  H858  1  0.23100000  0.44750000  0.56250000  1
  H  H859  1  0.75900000  0.94750000  0.06250000  1
  H  H860  1  0.28900000  0.09060000  0.91500000  1
  H  H861  1  0.70540000  0.59060000  0.41500000  1
  H  H862  1  0.52070000  0.42840000  0.57660000  1
  H  H863  1  0.47430000  0.92840000  0.07660000  1
  Mn  Mn864  1  0.29270000  0.49867000  0.42253000  1
  Mn  Mn865  1  0.78610000  0.99867000  0.92253000  1
  Mn  Mn866  1  0.39462000  0.88239000  0.96469000  1
  Mn  Mn867  1  0.75830000  0.38239000  0.46469000  1
  Mn  Mn868  1  0.58565000  0.41697000  0.35723000  1
  Mn  Mn869  1  0.64015000  0.91697000  0.85723000  1
  Mn  Mn870  1  0.64069000  0.46469000  0.11761000  1
  Mn  Mn871  1  0.77701000  0.96469000  0.61761000  1
  Mn  Mn872  1  0.70863000  0.57747000  0.99867000  1
  Mn  Mn873  1  0.71523000  0.07747000  0.49867000  1
  Mn  Mn874  1  0.49738000  0.64277000  0.91697000  1
  Mn  Mn875  1  0.94288000  0.14277000  0.41697000  1
  Mn  Mn876  1  0.50262000  0.35723000  0.08303000  1
  Mn  Mn877  1  0.05712000  0.85723000  0.58303000  1
  Mn  Mn878  1  0.29137000  0.42253000  0.00133000  1
  Mn  Mn879  1  0.28477000  0.92253000  0.50133000  1
  Mn  Mn880  1  0.35931000  0.53531000  0.88239000  1
  Mn  Mn881  1  0.22299000  0.03531000  0.38239000  1
  Mn  Mn882  1  0.41435000  0.58303000  0.64277000  1
  Mn  Mn883  1  0.35985000  0.08303000  0.14277000  1
  Mn  Mn884  1  0.60538000  0.11761000  0.03531000  1
  Mn  Mn885  1  0.24170000  0.61761000  0.53531000  1
  Mn  Mn886  1  0.70730000  0.50133000  0.57747000  1
  Mn  Mn887  1  0.21390000  0.00133000  0.07747000  1
  N  N888  1  0.31880000  0.93961000  0.04399000  1
  N  N889  1  0.69760000  0.43961000  0.54399000  1
  N  N890  1  0.30403000  0.92932000  0.00262000  1
  N  N891  1  0.76403000  0.42932000  0.50262000  1
  N  N892  1  0.24230000  0.43823000  0.41477000  1
  N  N893  1  0.90470000  0.93823000  0.91477000  1
  N  N894  1  0.40313000  0.46991000  0.38263000  1
  N  N895  1  0.74433000  0.96991000  0.88263000  1
  N  N896  1  0.48353000  0.92122000  0.92252000  1
  N  N897  1  0.67273000  0.42122000  0.42252000  1
  N  N898  1  0.45667000  0.43764000  0.40542000  1
  N  N899  1  0.70027000  0.93764000  0.90542000  1
  N  N900  1  0.55792000  0.88873000  0.89883000  1
  N  N901  1  0.65452000  0.38873000  0.39883000  1
  N  N902  1  0.70122000  0.41427000  0.29709000  1
  N  N903  1  0.58742000  0.91427000  0.79709000  1
  N  N904  1  0.38451000  0.70291000  0.91427000  1
  N  N905  1  0.99831000  0.20291000  0.41427000  1
  N  N906  1  0.63721000  0.54399000  0.06039000  1
  N  N907  1  0.75841000  0.04399000  0.56039000  1
  N  N908  1  0.62696000  0.61737000  0.96991000  1
  N  N909  1  0.78576000  0.11737000  0.46991000  1
  N  N910  1  0.69335000  0.50262000  0.07068000  1
  N  N911  1  0.73335000  0.00262000  0.57068000  1
  N  N912  1  0.60569000  0.59458000  0.93764000  1
  N  N913  1  0.86209000  0.09458000  0.43764000  1
  N  N914  1  0.81947000  0.58523000  0.93823000  1
  N  N915  1  0.65707000  0.08523000  0.43823000  1
  N  N916  1  0.54325000  0.39883000  0.11127000  1
  N  N917  1  0.94665000  0.89883000  0.61127000  1
  N  N918  1  0.59395000  0.42252000  0.07878000  1
  N  N919  1  0.90475000  0.92252000  0.57878000  1
  N  N920  1  0.40605000  0.57748000  0.92122000  1
  N  N921  1  0.09525000  0.07748000  0.42122000  1
  N  N922  1  0.45675000  0.60117000  0.88873000  1
  N  N923  1  0.05335000  0.10117000  0.38873000  1
  N  N924  1  0.18053000  0.41477000  0.06177000  1
  N  N925  1  0.34293000  0.91477000  0.56177000  1
  N  N926  1  0.39431000  0.40542000  0.06236000  1
  N  N927  1  0.13791000  0.90542000  0.56236000  1
  N  N928  1  0.30665000  0.49738000  0.92932000  1
  N  N929  1  0.26665000  0.99738000  0.42932000  1
  N  N930  1  0.37304000  0.38263000  0.03009000  1
  N  N931  1  0.21424000  0.88263000  0.53009000  1
  N  N932  1  0.36279000  0.45601000  0.93961000  1
  N  N933  1  0.24159000  0.95601000  0.43961000  1
  N  N934  1  0.61549000  0.29709000  0.08573000  1
  N  N935  1  0.00169000  0.79709000  0.58573000  1
  N  N936  1  0.29878000  0.58573000  0.70291000  1
  N  N937  1  0.41258000  0.08573000  0.20291000  1
  N  N938  1  0.44208000  0.11127000  0.10117000  1
  N  N939  1  0.34548000  0.61127000  0.60117000  1
  N  N940  1  0.54333000  0.56236000  0.59458000  1
  N  N941  1  0.29973000  0.06236000  0.09458000  1
  N  N942  1  0.51647000  0.07878000  0.07748000  1
  N  N943  1  0.32727000  0.57878000  0.57748000  1
  N  N944  1  0.59687000  0.53009000  0.61737000  1
  N  N945  1  0.25567000  0.03009000  0.11737000  1
  N  N946  1  0.75770000  0.56177000  0.58523000  1
  N  N947  1  0.09530000  0.06177000  0.08523000  1
  N  N948  1  0.69597000  0.07068000  0.99738000  1
  N  N949  1  0.23597000  0.57068000  0.49738000  1
  N  N950  1  0.68120000  0.06039000  0.95601000  1
  N  N951  1  0.30240000  0.56039000  0.45601000  1
  O  O952  1  0.18347000  0.52110000  0.46990000  1
  O  O953  1  0.82553000  0.02110000  0.96990000  1
  O  O954  1  0.73090000  0.95972000  0.96706000  1
  O  O955  1  0.34232000  0.45972000  0.46706000  1
  O  O956  1  0.26102000  0.53173000  0.37283000  1
  O  O957  1  0.83442000  0.03173000  0.87283000  1
  O  O958  1  0.43906000  0.88206000  0.01678000  1
  O  O959  1  0.66210000  0.38206000  0.51678000  1
  O  O960  1  0.60099000  0.47177000  0.37829000  1
  O  O961  1  0.54895000  0.97177000  0.87829000  1
  O  O962  1  0.33828000  0.89102000  0.91902000  1
  O  O963  1  0.85168000  0.39102000  0.41902000  1
  O  O964  1  0.51448000  0.45224000  0.31828000  1
  O  O965  1  0.71500000  0.95224000  0.81828000  1
  O  O966  1  0.49213000  0.83396000  0.93086000  1
  O  O967  1  0.74305000  0.33396000  0.43086000  1
  O  O968  1  0.58207000  0.35912000  0.34250000  1
  O  O969  1  0.71631000  0.85912000  0.84250000  1
  O  O970  1  0.70725000  0.62717000  0.03173000  1
  O  O971  1  0.63385000  0.12717000  0.53173000  1
  O  O972  1  0.54416000  0.51678000  0.11794000  1
  O  O973  1  0.82112000  0.01678000  0.61794000  1
  O  O974  1  0.53328000  0.68172000  0.95224000  1
  O  O975  1  0.83276000  0.18172000  0.45224000  1
  O  O976  1  0.57701000  0.43086000  0.16604000  1
  O  O977  1  0.82609000  0.93086000  0.66604000  1
  O  O978  1  0.42724000  0.62171000  0.97177000  1
  O  O979  1  0.97928000  0.12171000  0.47177000  1
  O  O980  1  0.79543000  0.53010000  0.02110000  1
  O  O981  1  0.65337000  0.03010000  0.52110000  1
  O  O982  1  0.74270000  0.41902000  0.10898000  1
  O  O983  1  0.72930000  0.91902000  0.60898000  1
  O  O984  1  0.55881000  0.65750000  0.85912000  1
  O  O985  1  0.92457000  0.15750000  0.35912000  1
  O  O986  1  0.30204000  0.46706000  0.04028000  1
  O  O987  1  0.19062000  0.96706000  0.54028000  1
  O  O988  1  0.69796000  0.53294000  0.95972000  1
  O  O989  1  0.80938000  0.03294000  0.45972000  1
  O  O990  1  0.44119000  0.34250000  0.14088000  1
  O  O991  1  0.07543000  0.84250000  0.64088000  1
  O  O992  1  0.25730000  0.58098000  0.89102000  1
  O  O993  1  0.27070000  0.08098000  0.39102000  1
  O  O994  1  0.20457000  0.46990000  0.97890000  1
  O  O995  1  0.34663000  0.96990000  0.47890000  1
  O  O996  1  0.57276000  0.37829000  0.02823000  1
  O  O997  1  0.02072000  0.87829000  0.52823000  1
  O  O998  1  0.42299000  0.56914000  0.83396000  1
  O  O999  1  0.17391000  0.06914000  0.33396000  1
  O  O1000  1  0.46672000  0.31828000  0.04776000  1
  O  O1001  1  0.16724000  0.81828000  0.54776000  1
  O  O1002  1  0.45584000  0.48322000  0.88206000  1
  O  O1003  1  0.17888000  0.98322000  0.38206000  1
  O  O1004  1  0.29275000  0.37283000  0.96827000  1
  O  O1005  1  0.36615000  0.87283000  0.46827000  1
  O  O1006  1  0.41793000  0.64088000  0.65750000  1
  O  O1007  1  0.28369000  0.14088000  0.15750000  1
  O  O1008  1  0.50787000  0.16604000  0.06914000  1
  O  O1009  1  0.25695000  0.66604000  0.56914000  1
  O  O1010  1  0.48552000  0.54776000  0.68172000  1
  O  O1011  1  0.28500000  0.04776000  0.18172000  1
  O  O1012  1  0.66172000  0.10898000  0.08098000  1
  O  O1013  1  0.14832000  0.60898000  0.58098000  1
  O  O1014  1  0.39901000  0.52823000  0.62171000  1
  O  O1015  1  0.45105000  0.02823000  0.12171000  1
  O  O1016  1  0.56094000  0.11794000  0.98322000  1
  O  O1017  1  0.33790000  0.61794000  0.48322000  1
  O  O1018  1  0.73898000  0.46827000  0.62717000  1
  O  O1019  1  0.16558000  0.96827000  0.12717000  1
  O  O1020  1  0.26910000  0.04028000  0.03294000  1
  O  O1021  1  0.65768000  0.54028000  0.53294000  1
  O  O1022  1  0.81653000  0.47890000  0.53010000  1
  O  O1023  1  0.17447000  0.97890000  0.03010000  1
