# generated using pymatgen
data_Cu2H23C19(NO)6
_symmetry_space_group_name_H-M   'P 1'
_cell_length_a   13.50400000
_cell_length_b   14.37500000
_cell_length_c   16.19300000
_cell_angle_alpha   90.00000000
_cell_angle_beta   90.00000000
_cell_angle_gamma   90.00000000
_symmetry_Int_Tables_number   1
_chemical_formula_structural   Cu2H23C19(NO)6
_chemical_formula_sum   'Cu8 H92 C76 N24 O24'
_cell_volume   3143.38516000
_cell_formula_units_Z   4
loop_
 _symmetry_equiv_pos_site_id
 _symmetry_equiv_pos_as_xyz
  1  'x, y, z'
loop_
 _atom_site_type_symbol
 _atom_site_label
 _atom_site_symmetry_multiplicity
 _atom_site_fract_x
 _atom_site_fract_y
 _atom_site_fract_z
 _atom_site_occupancy
  Cu  Cu0  1  0.06970000  0.45130000  0.58517000  1
  Cu  Cu1  1  0.20084000  0.70676000  0.83607000  1
  Cu  Cu2  1  0.29916000  0.29324000  0.33607000  1
  Cu  Cu3  1  0.43030000  0.54870000  0.08517000  1
  Cu  Cu4  1  0.56970000  0.04870000  0.41483000  1
  Cu  Cu5  1  0.70084000  0.79324000  0.16393000  1
  Cu  Cu6  1  0.79916000  0.20676000  0.66393000  1
  Cu  Cu7  1  0.93030000  0.95130000  0.91483000  1
  H  H8  1  0.00230000  0.64830000  0.03040000  1
  H  H9  1  0.00430000  0.14010000  0.89920000  1
  H  H10  1  0.00630000  0.24160000  0.33100000  1
  H  H11  1  0.02350000  0.95310000  0.70930000  1
  H  H12  1  0.03650000  0.73420000  0.56050000  1
  H  H13  1  0.05380000  0.14610000  0.29930000  1
  H  H14  1  0.05970000  0.31520000  0.82780000  1
  H  H15  1  0.06620000  0.57470000  0.97880000  1
  H  H16  1  0.06820000  0.56570000  0.23350000  1
  H  H17  1  0.07220000  0.19770000  0.96200000  1
  H  H18  1  0.08430000  0.58640000  0.07590000  1
  H  H19  1  0.08570000  0.79510000  0.36190000  1
  H  H20  1  0.09380000  0.40840000  0.02430000  1
  H  H21  1  0.11410000  0.40280000  0.86860000  1
  H  H22  1  0.11500000  0.21200000  0.36040000  1
  H  H23  1  0.12690000  0.45470000  0.40480000  1
  H  H24  1  0.14660000  0.74010000  0.05360000  1
  H  H25  1  0.14670000  0.31440000  0.99490000  1
  H  H26  1  0.14780000  0.49280000  0.26790000  1
  H  H27  1  0.16020000  0.35420000  0.78840000  1
  H  H28  1  0.17770000  0.59970000  0.25630000  1
  H  H29  1  0.21170000  0.39920000  0.02890000  1
  H  H30  1  0.22590000  0.63520000  0.66110000  1
  H  H31  1  0.27410000  0.36480000  0.16110000  1
  H  H32  1  0.28830000  0.60080000  0.52890000  1
  H  H33  1  0.32230000  0.40030000  0.75630000  1
  H  H34  1  0.33980000  0.64580000  0.28840000  1
  H  H35  1  0.35220000  0.50720000  0.76790000  1
  H  H36  1  0.35330000  0.68560000  0.49490000  1
  H  H37  1  0.35340000  0.25990000  0.55360000  1
  H  H38  1  0.37310000  0.54530000  0.90480000  1
  H  H39  1  0.38500000  0.78800000  0.86040000  1
  H  H40  1  0.38590000  0.59720000  0.36860000  1
  H  H41  1  0.40620000  0.59160000  0.52430000  1
  H  H42  1  0.41430000  0.20490000  0.86190000  1
  H  H43  1  0.41570000  0.41360000  0.57590000  1
  H  H44  1  0.42780000  0.80230000  0.46200000  1
  H  H45  1  0.43180000  0.43430000  0.73350000  1
  H  H46  1  0.43380000  0.42530000  0.47880000  1
  H  H47  1  0.44030000  0.68480000  0.32780000  1
  H  H48  1  0.44620000  0.85390000  0.79930000  1
  H  H49  1  0.46350000  0.26580000  0.06050000  1
  H  H50  1  0.47650000  0.04690000  0.20930000  1
  H  H51  1  0.49370000  0.75840000  0.83100000  1
  H  H52  1  0.49570000  0.85990000  0.39920000  1
  H  H53  1  0.49770000  0.35170000  0.53040000  1
  H  H54  1  0.50230000  0.85170000  0.96960000  1
  H  H55  1  0.50430000  0.35990000  0.10080000  1
  H  H56  1  0.50630000  0.25840000  0.66900000  1
  H  H57  1  0.52350000  0.54690000  0.29070000  1
  H  H58  1  0.53650000  0.76580000  0.43950000  1
  H  H59  1  0.55380000  0.35390000  0.70070000  1
  H  H60  1  0.55970000  0.18480000  0.17220000  1
  H  H61  1  0.56620000  0.92530000  0.02120000  1
  H  H62  1  0.56820000  0.93430000  0.76650000  1
  H  H63  1  0.57220000  0.30230000  0.03800000  1
  H  H64  1  0.58430000  0.91360000  0.92410000  1
  H  H65  1  0.58570000  0.70490000  0.63810000  1
  H  H66  1  0.59380000  0.09160000  0.97570000  1
  H  H67  1  0.61410000  0.09720000  0.13140000  1
  H  H68  1  0.61500000  0.28800000  0.63960000  1
  H  H69  1  0.62690000  0.04530000  0.59520000  1
  H  H70  1  0.64660000  0.75990000  0.94640000  1
  H  H71  1  0.64670000  0.18560000  0.00510000  1
  H  H72  1  0.64780000  0.00720000  0.73210000  1
  H  H73  1  0.66020000  0.14580000  0.21160000  1
  H  H74  1  0.67770000  0.90030000  0.74370000  1
  H  H75  1  0.71170000  0.10080000  0.97110000  1
  H  H76  1  0.72590000  0.86480000  0.33890000  1
  H  H77  1  0.77410000  0.13520000  0.83890000  1
  H  H78  1  0.78830000  0.89920000  0.47110000  1
  H  H79  1  0.82230000  0.09970000  0.24370000  1
  H  H80  1  0.83980000  0.85420000  0.71160000  1
  H  H81  1  0.85220000  0.99280000  0.23210000  1
  H  H82  1  0.85330000  0.81440000  0.50510000  1
  H  H83  1  0.85340000  0.24010000  0.44640000  1
  H  H84  1  0.87310000  0.95470000  0.09520000  1
  H  H85  1  0.88500000  0.71200000  0.13960000  1
  H  H86  1  0.88590000  0.90280000  0.63140000  1
  H  H87  1  0.90620000  0.90840000  0.47570000  1
  H  H88  1  0.91430000  0.29510000  0.13810000  1
  H  H89  1  0.91570000  0.08640000  0.42410000  1
  H  H90  1  0.92780000  0.69770000  0.53800000  1
  H  H91  1  0.93180000  0.06570000  0.26650000  1
  H  H92  1  0.93380000  0.07470000  0.52120000  1
  H  H93  1  0.94030000  0.81520000  0.67220000  1
  H  H94  1  0.94620000  0.64610000  0.20070000  1
  H  H95  1  0.96350000  0.23420000  0.93950000  1
  H  H96  1  0.97650000  0.45310000  0.79070000  1
  H  H97  1  0.99370000  0.74160000  0.16900000  1
  H  H98  1  0.99570000  0.64010000  0.60080000  1
  H  H99  1  0.99770000  0.14830000  0.46960000  1
  C  C100  1  0.00420000  0.17880000  0.94900000  1
  C  C101  1  0.03330000  0.75110000  0.36490000  1
  C  C102  1  0.03750000  0.62450000  0.48050000  1
  C  C103  1  0.03940000  0.43600000  0.76190000  1
  C  C104  1  0.05140000  0.65430000  0.39810000  1
  C  C105  1  0.05190000  0.83540000  0.82950000  1
  C  C106  1  0.05900000  0.80690000  0.91880000  1
  C  C107  1  0.06750000  0.61920000  0.02470000  1
  C  C108  1  0.06790000  0.21080000  0.31440000  1
  C  C109  1  0.07030000  0.27670000  0.16370000  1
  C  C110  1  0.09130000  0.57710000  0.35770000  1
  C  C111  1  0.09850000  0.37140000  0.81650000  1
  C  C112  1  0.09900000  0.52530000  0.74400000  1
  C  C113  1  0.11100000  0.25980000  0.24260000  1
  C  C114  1  0.12410000  0.55710000  0.27140000  1
  C  C115  1  0.14050000  0.32670000  0.12230000  1
  C  C116  1  0.14500000  0.69380000  0.00760000  1
  C  C117  1  0.14890000  0.36570000  0.03470000  1
  C  C118  1  0.24570000  0.64750000  0.99800000  1
  C  C119  1  0.25430000  0.35250000  0.49800000  1
  C  C120  1  0.35110000  0.63430000  0.53470000  1
  C  C121  1  0.35500000  0.30620000  0.50760000  1
  C  C122  1  0.35950000  0.67330000  0.62230000  1
  C  C123  1  0.37590000  0.44290000  0.77140000  1
  C  C124  1  0.38900000  0.74020000  0.74260000  1
  C  C125  1  0.40100000  0.47470000  0.24400000  1
  C  C126  1  0.40150000  0.62860000  0.31650000  1
  C  C127  1  0.40870000  0.42290000  0.85770000  1
  C  C128  1  0.42970000  0.72330000  0.66370000  1
  C  C129  1  0.43210000  0.78920000  0.81440000  1
  C  C130  1  0.43250000  0.38080000  0.52470000  1
  C  C131  1  0.44100000  0.19310000  0.41880000  1
  C  C132  1  0.44810000  0.16460000  0.32950000  1
  C  C133  1  0.44860000  0.34570000  0.89810000  1
  C  C134  1  0.46060000  0.56400000  0.26190000  1
  C  C135  1  0.46250000  0.37550000  0.98050000  1
  C  C136  1  0.46670000  0.24890000  0.86490000  1
  C  C137  1  0.49580000  0.82120000  0.44900000  1
  C  C138  1  0.50420000  0.32120000  0.05100000  1
  C  C139  1  0.53330000  0.74890000  0.63510000  1
  C  C140  1  0.53750000  0.87550000  0.51950000  1
  C  C141  1  0.53940000  0.06400000  0.23810000  1
  C  C142  1  0.55140000  0.84570000  0.60190000  1
  C  C143  1  0.55190000  0.66460000  0.17050000  1
  C  C144  1  0.55900000  0.69310000  0.08120000  1
  C  C145  1  0.56750000  0.88080000  0.97530000  1
  C  C146  1  0.56790000  0.28920000  0.68560000  1
  C  C147  1  0.57030000  0.22330000  0.83630000  1
  C  C148  1  0.59130000  0.92290000  0.64230000  1
  C  C149  1  0.59850000  0.12860000  0.18350000  1
  C  C150  1  0.59900000  0.97470000  0.25600000  1
  C  C151  1  0.61100000  0.24020000  0.75740000  1
  C  C152  1  0.62410000  0.94290000  0.72860000  1
  C  C153  1  0.64050000  0.17330000  0.87770000  1
  C  C154  1  0.64500000  0.80620000  0.99240000  1
  C  C155  1  0.64890000  0.13430000  0.96530000  1
  C  C156  1  0.74570000  0.85250000  0.00200000  1
  C  C157  1  0.75430000  0.14750000  0.50200000  1
  C  C158  1  0.85110000  0.86570000  0.46530000  1
  C  C159  1  0.85500000  0.19380000  0.49240000  1
  C  C160  1  0.85950000  0.82670000  0.37770000  1
  C  C161  1  0.87590000  0.05710000  0.22860000  1
  C  C162  1  0.88900000  0.75980000  0.25740000  1
  C  C163  1  0.90100000  0.02530000  0.75600000  1
  C  C164  1  0.90150000  0.87140000  0.68350000  1
  C  C165  1  0.90870000  0.07710000  0.14230000  1
  C  C166  1  0.92970000  0.77670000  0.33630000  1
  C  C167  1  0.93210000  0.71080000  0.18560000  1
  C  C168  1  0.93250000  0.11920000  0.47530000  1
  C  C169  1  0.94100000  0.30690000  0.58120000  1
  C  C170  1  0.94810000  0.33540000  0.67050000  1
  C  C171  1  0.94860000  0.15430000  0.10190000  1
  C  C172  1  0.96060000  0.93600000  0.73810000  1
  C  C173  1  0.96250000  0.12450000  0.01950000  1
  C  C174  1  0.96670000  0.25110000  0.13510000  1
  C  C175  1  0.99580000  0.67880000  0.55100000  1
  N  N176  1  0.01600000  0.39560000  0.68280000  1
  N  N177  1  0.06680000  0.53700000  0.48930000  1
  N  N178  1  0.10120000  0.50980000  0.41480000  1
  N  N179  1  0.12220000  0.73980000  0.92960000  1
  N  N180  1  0.20150000  0.29670000  0.24740000  1
  N  N181  1  0.21870000  0.33610000  0.17420000  1
  N  N182  1  0.28130000  0.66390000  0.67420000  1
  N  N183  1  0.29850000  0.70330000  0.74740000  1
  N  N184  1  0.37780000  0.26020000  0.42960000  1
  N  N185  1  0.39880000  0.49020000  0.91480000  1
  N  N186  1  0.43320000  0.46300000  0.98930000  1
  N  N187  1  0.48400000  0.60440000  0.18280000  1
  N  N188  1  0.51600000  0.10440000  0.31720000  1
  N  N189  1  0.56680000  0.96300000  0.51070000  1
  N  N190  1  0.60120000  0.99020000  0.58520000  1
  N  N191  1  0.62220000  0.76020000  0.07040000  1
  N  N192  1  0.70150000  0.20330000  0.75260000  1
  N  N193  1  0.71870000  0.16390000  0.82580000  1
  N  N194  1  0.78130000  0.83610000  0.32580000  1
  N  N195  1  0.79850000  0.79670000  0.25260000  1
  N  N196  1  0.87780000  0.23980000  0.57040000  1
  N  N197  1  0.89880000  0.00980000  0.08520000  1
  N  N198  1  0.93320000  0.03700000  0.01070000  1
  N  N199  1  0.98400000  0.89560000  0.81720000  1
  O  O200  1  0.00760000  0.85000000  0.97160000  1
  O  O201  1  0.11070000  0.79840000  0.77640000  1
  O  O202  1  0.12160000  0.54240000  0.66860000  1
  O  O203  1  0.12780000  0.57280000  0.80310000  1
  O  O204  1  0.21520000  0.35060000  0.42480000  1
  O  O205  1  0.21750000  0.38960000  0.55860000  1
  O  O206  1  0.28250000  0.61040000  0.05860000  1
  O  O207  1  0.28480000  0.64940000  0.92480000  1
  O  O208  1  0.37220000  0.42720000  0.30310000  1
  O  O209  1  0.37840000  0.45760000  0.16860000  1
  O  O210  1  0.38930000  0.20160000  0.27640000  1
  O  O211  1  0.49240000  0.15000000  0.47160000  1
  O  O212  1  0.50760000  0.65000000  0.02840000  1
  O  O213  1  0.61070000  0.70160000  0.22360000  1
  O  O214  1  0.62160000  0.95760000  0.33140000  1
  O  O215  1  0.62780000  0.92720000  0.19690000  1
  O  O216  1  0.71520000  0.14940000  0.57520000  1
  O  O217  1  0.71750000  0.11040000  0.44140000  1
  O  O218  1  0.78250000  0.88960000  0.94140000  1
  O  O219  1  0.78480000  0.85060000  0.07520000  1
  O  O220  1  0.87220000  0.07280000  0.69690000  1
  O  O221  1  0.87840000  0.04240000  0.83140000  1
  O  O222  1  0.88930000  0.29840000  0.72360000  1
  O  O223  1  0.99240000  0.35000000  0.52840000  1
