# generated using pymatgen
data_Zn2H20C34N3O10
_symmetry_space_group_name_H-M   'P 1'
_cell_length_a   15.08550000
_cell_length_b   15.08550000
_cell_length_c   21.51500000
_cell_angle_alpha   83.86720000
_cell_angle_beta   83.86720000
_cell_angle_gamma   65.55560000
_symmetry_Int_Tables_number   1
_chemical_formula_structural   Zn2H20C34N3O10
_chemical_formula_sum   'Zn8 H80 C136 N12 O40'
_cell_volume   4421.20777994
_cell_formula_units_Z   4
loop_
 _symmetry_equiv_pos_site_id
 _symmetry_equiv_pos_as_xyz
  1  'x, y, z'
loop_
 _atom_site_type_symbol
 _atom_site_label
 _atom_site_symmetry_multiplicity
 _atom_site_fract_x
 _atom_site_fract_y
 _atom_site_fract_z
 _atom_site_occupancy
  Zn  Zn0  1  0.98715000  0.99035000  0.31853000  1
  Zn  Zn1  1  0.99035000  0.98715000  0.81853000  1
  Zn  Zn2  1  0.43236000  0.95184000  0.00610000  1
  Zn  Zn3  1  0.04816000  0.56764000  0.49390000  1
  Zn  Zn4  1  0.95184000  0.43236000  0.50610000  1
  Zn  Zn5  1  0.56764000  0.04816000  0.99390000  1
  Zn  Zn6  1  0.00965000  0.01285000  0.18147000  1
  Zn  Zn7  1  0.01285000  0.00965000  0.68147000  1
  H  H8  1  0.31890000  0.96170000  0.18200000  1
  H  H9  1  0.25210000  0.93890000  0.07650000  1
  H  H10  1  0.30020000  0.93740000  0.84650000  1
  H  H11  1  0.47960000  0.93140000  0.19070000  1
  H  H12  1  0.28170000  0.91290000  0.36710000  1
  H  H13  1  0.72220000  0.90560000  0.31290000  1
  H  H14  1  0.32220000  0.89700000  0.66390000  1
  H  H15  1  0.44130000  0.88810000  0.37810000  1
  H  H16  1  0.46700000  0.88760000  0.84340000  1
  H  H17  1  0.73670000  0.86970000  0.70780000  1
  H  H18  1  0.77190000  0.86710000  0.14280000  1
  H  H19  1  0.79120000  0.84960000  0.86700000  1
  H  H20  1  0.48780000  0.84800000  0.66080000  1
  H  H21  1  0.18930000  0.82570000  0.10810000  1
  H  H22  1  0.17430000  0.81070000  0.39190000  1
  H  H23  1  0.84960000  0.79120000  0.36700000  1
  H  H24  1  0.86710000  0.77190000  0.64280000  1
  H  H25  1  0.06110000  0.74790000  0.42350000  1
  H  H26  1  0.48100000  0.74480000  0.99190000  1
  H  H27  1  0.59070000  0.73690000  0.13620000  1
  H  H28  1  0.86970000  0.73670000  0.20780000  1
  H  H29  1  0.57870000  0.73050000  0.34520000  1
  H  H30  1  0.33420000  0.72480000  0.41940000  1
  H  H31  1  0.90560000  0.72220000  0.81290000  1
  H  H32  1  0.08710000  0.71830000  0.13290000  1
  H  H33  1  0.61840000  0.70640000  0.90030000  1
  H  H34  1  0.06260000  0.69980000  0.65350000  1
  H  H35  1  0.60870000  0.68530000  0.70270000  1
  H  H36  1  0.03830000  0.68110000  0.31800000  1
  H  H37  1  0.10300000  0.67780000  0.83610000  1
  H  H38  1  0.27520000  0.66580000  0.08060000  1
  H  H39  1  0.70640000  0.61840000  0.40030000  1
  H  H40  1  0.68530000  0.60870000  0.20270000  1
  H  H41  1  0.73690000  0.59070000  0.63620000  1
  H  H42  1  0.73050000  0.57870000  0.84520000  1
  H  H43  1  0.11190000  0.55870000  0.12190000  1
  H  H44  1  0.11240000  0.53300000  0.65660000  1
  H  H45  1  0.06860000  0.52040000  0.30930000  1
  H  H46  1  0.25520000  0.51900000  0.50810000  1
  H  H47  1  0.15200000  0.51220000  0.83920000  1
  H  H48  1  0.84800000  0.48780000  0.16080000  1
  H  H49  1  0.74480000  0.48100000  0.49190000  1
  H  H50  1  0.93140000  0.47960000  0.69070000  1
  H  H51  1  0.88760000  0.46700000  0.34340000  1
  H  H52  1  0.88810000  0.44130000  0.87810000  1
  H  H53  1  0.26950000  0.42130000  0.15480000  1
  H  H54  1  0.26310000  0.40930000  0.36380000  1
  H  H55  1  0.31470000  0.39130000  0.79730000  1
  H  H56  1  0.29360000  0.38160000  0.59970000  1
  H  H57  1  0.72480000  0.33420000  0.91940000  1
  H  H58  1  0.89700000  0.32220000  0.16390000  1
  H  H59  1  0.96170000  0.31890000  0.68200000  1
  H  H60  1  0.39130000  0.31470000  0.29730000  1
  H  H61  1  0.93740000  0.30020000  0.34650000  1
  H  H62  1  0.38160000  0.29360000  0.09970000  1
  H  H63  1  0.91290000  0.28170000  0.86710000  1
  H  H64  1  0.09440000  0.27780000  0.18710000  1
  H  H65  1  0.66580000  0.27520000  0.58060000  1
  H  H66  1  0.42130000  0.26950000  0.65480000  1
  H  H67  1  0.13030000  0.26330000  0.79220000  1
  H  H68  1  0.40930000  0.26310000  0.86380000  1
  H  H69  1  0.51900000  0.25520000  0.00810000  1
  H  H70  1  0.93890000  0.25210000  0.57650000  1
  H  H71  1  0.13290000  0.22810000  0.35720000  1
  H  H72  1  0.15040000  0.20880000  0.63300000  1
  H  H73  1  0.82570000  0.18930000  0.60810000  1
  H  H74  1  0.81070000  0.17430000  0.89190000  1
  H  H75  1  0.51220000  0.15200000  0.33920000  1
  H  H76  1  0.20880000  0.15040000  0.13300000  1
  H  H77  1  0.22810000  0.13290000  0.85720000  1
  H  H78  1  0.26330000  0.13030000  0.29220000  1
  H  H79  1  0.53300000  0.11240000  0.15660000  1
  H  H80  1  0.55870000  0.11190000  0.62190000  1
  H  H81  1  0.67780000  0.10300000  0.33610000  1
  H  H82  1  0.27780000  0.09440000  0.68710000  1
  H  H83  1  0.71830000  0.08710000  0.63290000  1
  H  H84  1  0.52040000  0.06860000  0.80930000  1
  H  H85  1  0.69980000  0.06260000  0.15350000  1
  H  H86  1  0.74790000  0.06110000  0.92350000  1
  H  H87  1  0.68110000  0.03830000  0.81800000  1
  C  C88  1  0.17806000  0.96086000  0.26770000  1
  C  C89  1  0.18426000  0.95386000  0.75594000  1
  C  C90  1  0.34400000  0.94580000  0.22129000  1
  C  C91  1  0.28351000  0.94033000  0.27393000  1
  C  C92  1  0.43980000  0.92820000  0.22625000  1
  C  C93  1  0.29341000  0.92001000  0.75594000  1
  C  C94  1  0.33778000  0.91858000  0.80914000  1
  C  C95  1  0.32136000  0.91756000  0.33182000  1
  C  C96  1  0.47606000  0.90586000  0.28460000  1
  C  C97  1  0.41676000  0.90156000  0.33860000  1
  C  C98  1  0.35140000  0.89440000  0.70034000  1
  C  C99  1  0.61330000  0.89364000  0.08635000  1
  C  C100  1  0.43742000  0.88962000  0.80717000  1
  C  C101  1  0.28672000  0.87512000  0.06530000  1
  C  C102  1  0.62133000  0.87305000  0.92623000  1
  C  C103  1  0.45014000  0.86574000  0.69817000  1
  C  C104  1  0.49346000  0.86346000  0.75192000  1
  C  C105  1  0.71910000  0.84770000  0.33030000  1
  C  C106  1  0.63836000  0.82836000  0.32380000  1
  C  C107  1  0.03914000  0.82194000  0.23230000  1
  C  C108  1  0.04614000  0.81574000  0.74406000  1
  C  C109  1  0.75510000  0.81450000  0.15398000  1
  C  C110  1  0.67348000  0.81376000  0.13135000  1
  C  C111  1  0.73674000  0.81354000  0.69380000  1
  C  C112  1  0.24873000  0.80773000  0.08460000  1
  C  C113  1  0.77951000  0.79471000  0.86305000  1
  C  C114  1  0.69445000  0.79031000  0.89000000  1
  C  C115  1  0.66092000  0.78612000  0.71169000  1
  C  C116  1  0.79471000  0.77951000  0.36305000  1
  C  C117  1  0.42197000  0.76051000  0.01573000  1
  C  C118  1  0.81450000  0.75510000  0.65398000  1
  C  C119  1  0.19227000  0.75127000  0.41540000  1
  C  C120  1  0.63302000  0.74302000  0.34980000  1
  C  C121  1  0.64671000  0.73711000  0.15030000  1
  C  C122  1  0.81354000  0.73674000  0.19380000  1
  C  C123  1  0.84770000  0.71910000  0.83030000  1
  C  C124  1  0.05967000  0.71649000  0.22607000  1
  C  C125  1  0.12488000  0.71328000  0.43470000  1
  C  C126  1  0.30005000  0.71265000  0.06860000  1
  C  C127  1  0.67630000  0.70930000  0.88280000  1
  C  C128  1  0.07999000  0.70659000  0.74406000  1
  C  C129  1  0.66029000  0.70329000  0.69040000  1
  C  C130  1  0.28735000  0.69995000  0.43140000  1
  C  C131  1  0.79031000  0.69445000  0.39000000  1
  C  C132  1  0.38961000  0.68761000  0.03403000  1
  C  C133  1  0.08244000  0.67864000  0.16818000  1
  C  C134  1  0.70930000  0.67630000  0.38280000  1
  C  C135  1  0.81376000  0.67348000  0.63135000  1
  C  C136  1  0.08142000  0.66222000  0.69086000  1
  C  C137  1  0.78612000  0.66092000  0.21169000  1
  C  C138  1  0.70329000  0.66029000  0.19040000  1
  C  C139  1  0.05420000  0.65600000  0.27871000  1
  C  C140  1  0.10560000  0.64860000  0.79966000  1
  C  C141  1  0.73711000  0.64671000  0.65030000  1
  C  C142  1  0.82836000  0.63836000  0.82380000  1
  C  C143  1  0.74302000  0.63302000  0.84980000  1
  C  C144  1  0.87305000  0.62133000  0.42623000  1
  C  C145  1  0.89364000  0.61330000  0.58635000  1
  C  C146  1  0.31239000  0.61039000  0.46597000  1
  C  C147  1  0.44897000  0.58677000  0.01480000  1
  C  C148  1  0.09844000  0.58324000  0.16140000  1
  C  C149  1  0.23949000  0.57803000  0.48427000  1
  C  C150  1  0.11038000  0.56258000  0.69283000  1
  C  C151  1  0.07180000  0.56020000  0.27375000  1
  C  C152  1  0.41323000  0.55103000  0.48520000  1
  C  C153  1  0.13426000  0.54986000  0.80183000  1
  C  C154  1  0.09414000  0.52394000  0.21540000  1
  C  C155  1  0.13654000  0.50654000  0.74808000  1
  C  C156  1  0.86346000  0.49346000  0.25192000  1
  C  C157  1  0.90586000  0.47606000  0.78460000  1
  C  C158  1  0.86574000  0.45014000  0.19817000  1
  C  C159  1  0.58677000  0.44897000  0.51480000  1
  C  C160  1  0.92820000  0.43980000  0.72625000  1
  C  C161  1  0.88962000  0.43742000  0.30717000  1
  C  C162  1  0.76051000  0.42197000  0.51573000  1
  C  C163  1  0.90156000  0.41676000  0.83860000  1
  C  C164  1  0.55103000  0.41323000  0.98520000  1
  C  C165  1  0.68761000  0.38961000  0.53403000  1
  C  C166  1  0.10636000  0.38670000  0.41365000  1
  C  C167  1  0.12695000  0.37867000  0.57377000  1
  C  C168  1  0.25698000  0.36698000  0.15020000  1
  C  C169  1  0.17164000  0.36164000  0.17620000  1
  C  C170  1  0.26289000  0.35329000  0.34970000  1
  C  C171  1  0.89440000  0.35140000  0.20034000  1
  C  C172  1  0.94580000  0.34400000  0.72129000  1
  C  C173  1  0.29671000  0.33971000  0.80960000  1
  C  C174  1  0.21388000  0.33908000  0.78831000  1
  C  C175  1  0.91858000  0.33778000  0.30914000  1
  C  C176  1  0.18624000  0.32652000  0.36865000  1
  C  C177  1  0.29070000  0.32370000  0.61720000  1
  C  C178  1  0.91756000  0.32136000  0.83182000  1
  C  C179  1  0.61039000  0.31239000  0.96597000  1
  C  C180  1  0.20969000  0.30555000  0.61000000  1
  C  C181  1  0.71265000  0.30005000  0.56860000  1
  C  C182  1  0.33971000  0.29671000  0.30960000  1
  C  C183  1  0.92001000  0.29341000  0.25594000  1
  C  C184  1  0.32370000  0.29070000  0.11720000  1
  C  C185  1  0.69995000  0.28735000  0.93140000  1
  C  C186  1  0.87512000  0.28672000  0.56530000  1
  C  C187  1  0.94033000  0.28351000  0.77393000  1
  C  C188  1  0.15230000  0.28090000  0.16970000  1
  C  C189  1  0.18646000  0.26326000  0.80620000  1
  C  C190  1  0.35329000  0.26289000  0.84970000  1
  C  C191  1  0.36698000  0.25698000  0.65020000  1
  C  C192  1  0.80773000  0.24873000  0.58460000  1
  C  C193  1  0.18550000  0.24490000  0.34602000  1
  C  C194  1  0.57803000  0.23949000  0.98427000  1
  C  C195  1  0.20529000  0.22049000  0.63695000  1
  C  C196  1  0.33908000  0.21388000  0.28831000  1
  C  C197  1  0.30555000  0.20969000  0.11000000  1
  C  C198  1  0.22049000  0.20529000  0.13695000  1
  C  C199  1  0.75127000  0.19227000  0.91540000  1
  C  C200  1  0.26326000  0.18646000  0.30620000  1
  C  C201  1  0.32652000  0.18624000  0.86865000  1
  C  C202  1  0.24490000  0.18550000  0.84602000  1
  C  C203  1  0.95386000  0.18426000  0.25594000  1
  C  C204  1  0.96086000  0.17806000  0.76770000  1
  C  C205  1  0.36164000  0.17164000  0.67620000  1
  C  C206  1  0.28090000  0.15230000  0.66970000  1
  C  C207  1  0.50654000  0.13654000  0.24808000  1
  C  C208  1  0.54986000  0.13426000  0.30183000  1
  C  C209  1  0.37867000  0.12695000  0.07377000  1
  C  C210  1  0.71328000  0.12488000  0.93470000  1
  C  C211  1  0.56258000  0.11038000  0.19283000  1
  C  C212  1  0.38670000  0.10636000  0.91365000  1
  C  C213  1  0.64860000  0.10560000  0.29966000  1
  C  C214  1  0.58324000  0.09844000  0.66140000  1
  C  C215  1  0.52394000  0.09414000  0.71540000  1
  C  C216  1  0.67864000  0.08244000  0.66818000  1
  C  C217  1  0.66222000  0.08142000  0.19086000  1
  C  C218  1  0.70659000  0.07999000  0.24406000  1
  C  C219  1  0.56020000  0.07180000  0.77375000  1
  C  C220  1  0.71649000  0.05967000  0.72607000  1
  C  C221  1  0.65600000  0.05420000  0.77871000  1
  C  C222  1  0.81574000  0.04614000  0.24406000  1
  C  C223  1  0.82194000  0.03914000  0.73230000  1
  N  N224  1  0.37115000  0.85335000  0.03108000  1
  N  N225  1  0.14665000  0.62885000  0.46892000  1
  N  N226  1  0.48258000  0.58088000  0.46088000  1
  N  N227  1  0.52768000  0.57188000  0.97630000  1
  N  N228  1  0.57188000  0.52768000  0.47630000  1
  N  N229  1  0.41912000  0.51742000  0.03912000  1
  N  N230  1  0.58088000  0.48258000  0.96088000  1
  N  N231  1  0.42812000  0.47232000  0.52370000  1
  N  N232  1  0.47232000  0.42812000  0.02370000  1
  N  N233  1  0.51742000  0.41912000  0.53912000  1
  N  N234  1  0.85335000  0.37115000  0.53108000  1
  N  N235  1  0.62885000  0.14665000  0.96892000  1
  O  O236  1  0.14601000  0.98329000  0.21408000  1
  O  O237  1  0.15012000  0.96642000  0.70302000  1
  O  O238  1  0.13563000  0.96569000  0.80776000  1
  O  O239  1  0.64509000  0.95813000  0.06449000  1
  O  O240  1  0.12918000  0.95352000  0.31813000  1
  O  O241  1  0.64634000  0.94082000  0.93624000  1
  O  O242  1  0.57032000  0.89810000  0.28593000  1
  O  O243  1  0.53664000  0.89176000  0.07136000  1
  O  O244  1  0.04648000  0.87082000  0.18187000  1
  O  O245  1  0.54015000  0.87007000  0.94501000  1
  O  O246  1  0.03431000  0.86437000  0.69224000  1
  O  O247  1  0.01671000  0.85399000  0.28592000  1
  O  O248  1  0.03358000  0.84988000  0.79698000  1
  O  O249  1  0.59070000  0.84340000  0.75414000  1
  O  O250  1  0.94082000  0.64634000  0.43624000  1
  O  O251  1  0.95813000  0.64509000  0.56449000  1
  O  O252  1  0.84340000  0.59070000  0.25414000  1
  O  O253  1  0.89810000  0.57032000  0.78593000  1
  O  O254  1  0.87007000  0.54015000  0.44501000  1
  O  O255  1  0.89176000  0.53664000  0.57136000  1
  O  O256  1  0.10824000  0.46336000  0.42864000  1
  O  O257  1  0.12993000  0.45985000  0.55499000  1
  O  O258  1  0.10190000  0.42968000  0.21407000  1
  O  O259  1  0.15660000  0.40930000  0.74586000  1
  O  O260  1  0.04187000  0.35491000  0.43551000  1
  O  O261  1  0.05918000  0.35366000  0.56376000  1
  O  O262  1  0.40930000  0.15660000  0.24586000  1
  O  O263  1  0.96642000  0.15012000  0.20302000  1
  O  O264  1  0.98329000  0.14601000  0.71408000  1
  O  O265  1  0.96569000  0.13563000  0.30776000  1
  O  O266  1  0.45985000  0.12993000  0.05499000  1
  O  O267  1  0.95352000  0.12918000  0.81813000  1
  O  O268  1  0.46336000  0.10824000  0.92864000  1
  O  O269  1  0.42968000  0.10190000  0.71407000  1
  O  O270  1  0.35366000  0.05918000  0.06376000  1
  O  O271  1  0.87082000  0.04648000  0.68187000  1
  O  O272  1  0.35491000  0.04187000  0.93551000  1
  O  O273  1  0.86437000  0.03431000  0.19224000  1
  O  O274  1  0.84988000  0.03358000  0.29698000  1
  O  O275  1  0.85399000  0.01671000  0.78592000  1
