# generated using pymatgen
data_Co8Mo8P12H32C25N5O56
_symmetry_space_group_name_H-M   'P 1'
_cell_length_a   15.68250000
_cell_length_b   17.27630000
_cell_length_c   39.50300000
_cell_angle_alpha   90.00000000
_cell_angle_beta   90.00000000
_cell_angle_gamma   93.79100000
_symmetry_Int_Tables_number   1
_chemical_formula_structural   Co8Mo8P12H32C25N5O56
_chemical_formula_sum   'Co32 Mo32 P48 H128 C100 N20 O224'
_cell_volume   10679.34892158
_cell_formula_units_Z   4
loop_
 _symmetry_equiv_pos_site_id
 _symmetry_equiv_pos_as_xyz
  1  'x, y, z'
loop_
 _atom_site_type_symbol
 _atom_site_label
 _atom_site_symmetry_multiplicity
 _atom_site_fract_x
 _atom_site_fract_y
 _atom_site_fract_z
 _atom_site_occupancy
  Co  Co0  1  0.99540000  0.38180000  0.15829000  1
  Co  Co1  1  0.98335000  0.34650000  0.84338000  1
  Co  Co2  1  0.88027000  0.16409000  0.54585000  1
  Co  Co3  1  0.87795000  0.17013000  0.46583000  1
  Co  Co4  1  0.85905000  0.52870000  0.15730000  1
  Co  Co5  1  0.84786000  0.49200000  0.84184000  1
  Co  Co6  1  0.75270000  0.18283000  0.96654000  1
  Co  Co7  1  0.75030000  0.19080000  0.04654000  1
  Co  Co8  1  0.74970000  0.30920000  0.54654000  1
  Co  Co9  1  0.74730000  0.31717000  0.46654000  1
  Co  Co10  1  0.65214000  0.00800000  0.34184000  1
  Co  Co11  1  0.64095000  0.97130000  0.65730000  1
  Co  Co12  1  0.62205000  0.32987000  0.96583000  1
  Co  Co13  1  0.61973000  0.33591000  0.04585000  1
  Co  Co14  1  0.51665000  0.15350000  0.34338000  1
  Co  Co15  1  0.50460000  0.11820000  0.65829000  1
  Co  Co16  1  0.49540000  0.88180000  0.34171000  1
  Co  Co17  1  0.48335000  0.84650000  0.65662000  1
  Co  Co18  1  0.38027000  0.66409000  0.95415000  1
  Co  Co19  1  0.37795000  0.67013000  0.03417000  1
  Co  Co20  1  0.35905000  0.02870000  0.34270000  1
  Co  Co21  1  0.34786000  0.99200000  0.65816000  1
  Co  Co22  1  0.25270000  0.68283000  0.53346000  1
  Co  Co23  1  0.25030000  0.69080000  0.45346000  1
  Co  Co24  1  0.24970000  0.80920000  0.95346000  1
  Co  Co25  1  0.24730000  0.81717000  0.03346000  1
  Co  Co26  1  0.15214000  0.50800000  0.15816000  1
  Co  Co27  1  0.14095000  0.47130000  0.84270000  1
  Co  Co28  1  0.12205000  0.82987000  0.53417000  1
  Co  Co29  1  0.11973000  0.83591000  0.45415000  1
  Co  Co30  1  0.01665000  0.65350000  0.15662000  1
  Co  Co31  1  0.00460000  0.61820000  0.84171000  1
  Mo  Mo32  1  0.96400000  0.24352000  0.08621000  1
  Mo  Mo33  1  0.96323000  0.22573000  0.92170000  1
  Mo  Mo34  1  0.84123000  0.22606000  0.13032000  1
  Mo  Mo35  1  0.83685000  0.11124000  0.37753000  1
  Mo  Mo36  1  0.83502000  0.20052000  0.88026000  1
  Mo  Mo37  1  0.83229000  0.08517000  0.62991000  1
  Mo  Mo38  1  0.79250000  0.97951000  0.58429000  1
  Mo  Mo39  1  0.79235000  0.99732000  0.41869000  1
  Mo  Mo40  1  0.70765000  0.50268000  0.91869000  1
  Mo  Mo41  1  0.70750000  0.52049000  0.08429000  1
  Mo  Mo42  1  0.66771000  0.41483000  0.12991000  1
  Mo  Mo43  1  0.66498000  0.29948000  0.38026000  1
  Mo  Mo44  1  0.66315000  0.38876000  0.87753000  1
  Mo  Mo45  1  0.65877000  0.27394000  0.63032000  1
  Mo  Mo46  1  0.53677000  0.27427000  0.42170000  1
  Mo  Mo47  1  0.53600000  0.25648000  0.58621000  1
  Mo  Mo48  1  0.46400000  0.74352000  0.41379000  1
  Mo  Mo49  1  0.46323000  0.72573000  0.57830000  1
  Mo  Mo50  1  0.34123000  0.72606000  0.36968000  1
  Mo  Mo51  1  0.33685000  0.61124000  0.12247000  1
  Mo  Mo52  1  0.33502000  0.70052000  0.61974000  1
  Mo  Mo53  1  0.33229000  0.58517000  0.87009000  1
  Mo  Mo54  1  0.29250000  0.47951000  0.91571000  1
  Mo  Mo55  1  0.29235000  0.49732000  0.08131000  1
  Mo  Mo56  1  0.20765000  0.00268000  0.58131000  1
  Mo  Mo57  1  0.20750000  0.02049000  0.41571000  1
  Mo  Mo58  1  0.16771000  0.91483000  0.37009000  1
  Mo  Mo59  1  0.16498000  0.79948000  0.11974000  1
  Mo  Mo60  1  0.16315000  0.88876000  0.62247000  1
  Mo  Mo61  1  0.15877000  0.77394000  0.86968000  1
  Mo  Mo62  1  0.03677000  0.77427000  0.07830000  1
  Mo  Mo63  1  0.03600000  0.75648000  0.91379000  1
  P  P64  1  0.99630000  0.48340000  0.78742000  1
  P  P65  1  0.93810000  0.18490000  0.00466000  1
  P  P66  1  0.92760000  0.32320000  0.50537000  1
  P  P67  1  0.86930000  0.27430000  0.61428000  1
  P  P68  1  0.86900000  0.29350000  0.40319000  1
  P  P69  1  0.86450000  0.38240000  0.90857000  1
  P  P70  1  0.85600000  0.66780000  0.10042000  1
  P  P71  1  0.85460000  0.64560000  0.89677000  1
  P  P72  1  0.85090000  0.99930000  0.50114000  1
  P  P73  1  0.81390000  0.36500000  0.07171000  1
  P  P74  1  0.80620000  0.36060000  0.18736000  1
  P  P75  1  0.78380000  0.31460000  0.81614000  1
  P  P76  1  0.71620000  0.18540000  0.31614000  1
  P  P77  1  0.69380000  0.13940000  0.68736000  1
  P  P78  1  0.68610000  0.13500000  0.57171000  1
  P  P79  1  0.64910000  0.50070000  0.00114000  1
  P  P80  1  0.64540000  0.85440000  0.39677000  1
  P  P81  1  0.64400000  0.83220000  0.60042000  1
  P  P82  1  0.63550000  0.11760000  0.40857000  1
  P  P83  1  0.63100000  0.20650000  0.90319000  1
  P  P84  1  0.63070000  0.22570000  0.11428000  1
  P  P85  1  0.57240000  0.17680000  0.00537000  1
  P  P86  1  0.56190000  0.31510000  0.50466000  1
  P  P87  1  0.50370000  0.01660000  0.28742000  1
  P  P88  1  0.49630000  0.98340000  0.71258000  1
  P  P89  1  0.43810000  0.68490000  0.49534000  1
  P  P90  1  0.42760000  0.82320000  0.99463000  1
  P  P91  1  0.36930000  0.77430000  0.88572000  1
  P  P92  1  0.36900000  0.79350000  0.09681000  1
  P  P93  1  0.36450000  0.88240000  0.59143000  1
  P  P94  1  0.35600000  0.16780000  0.39958000  1
  P  P95  1  0.35460000  0.14560000  0.60323000  1
  P  P96  1  0.35090000  0.49930000  0.99886000  1
  P  P97  1  0.31390000  0.86500000  0.42829000  1
  P  P98  1  0.30620000  0.86060000  0.31264000  1
  P  P99  1  0.28380000  0.81460000  0.68386000  1
  P  P100  1  0.21620000  0.68540000  0.18386000  1
  P  P101  1  0.19380000  0.63940000  0.81264000  1
  P  P102  1  0.18610000  0.63500000  0.92829000  1
  P  P103  1  0.14910000  0.00070000  0.49886000  1
  P  P104  1  0.14540000  0.35440000  0.10323000  1
  P  P105  1  0.14400000  0.33220000  0.89958000  1
  P  P106  1  0.13550000  0.61760000  0.09143000  1
  P  P107  1  0.13100000  0.70650000  0.59681000  1
  P  P108  1  0.13070000  0.72570000  0.38572000  1
  P  P109  1  0.07240000  0.67680000  0.49463000  1
  P  P110  1  0.06190000  0.81510000  0.99534000  1
  P  P111  1  0.00370000  0.51660000  0.21258000  1
  H  H112  1  0.99220000  0.68350000  0.23370000  1
  H  H113  1  0.99010000  0.64700000  0.76480000  1
  H  H114  1  0.97520000  0.98960000  0.49910000  1
  H  H115  1  0.96150000  0.36170000  0.42220000  1
  H  H116  1  0.95770000  0.34690000  0.45860000  1
  H  H117  1  0.95040000  0.33690000  0.55450000  1
  H  H118  1  0.94830000  0.07550000  0.01900000  1
  H  H119  1  0.94800000  0.33580000  0.64300000  1
  H  H120  1  0.92990000  0.80840000  0.15760000  1
  H  H121  1  0.92540000  0.75930000  0.26860000  1
  H  H122  1  0.91700000  0.71870000  0.72560000  1
  H  H123  1  0.91610000  0.77490000  0.83880000  1
  H  H124  1  0.91050000  0.44260000  0.22650000  1
  H  H125  1  0.90140000  0.40500000  0.77660000  1
  H  H126  1  0.87710000  0.45820000  0.46700000  1
  H  H127  1  0.87460000  0.58890000  0.47860000  1
  H  H128  1  0.87390000  0.80110000  0.69400000  1
  H  H129  1  0.87300000  0.92390000  0.95640000  1
  H  H130  1  0.86900000  0.05590000  0.94740000  1
  H  H131  1  0.86890000  0.82190000  0.30310000  1
  H  H132  1  0.85020000  0.39410000  0.23310000  1
  H  H133  1  0.85000000  0.84840000  0.80420000  1
  H  H134  1  0.84430000  0.87400000  0.19130000  1
  H  H135  1  0.82320000  0.53980000  0.23430000  1
  H  H136  1  0.80690000  0.28040000  0.77000000  1
  H  H137  1  0.80060000  0.90710000  0.33920000  1
  H  H138  1  0.79840000  0.87940000  0.65890000  1
  H  H139  1  0.79740000  0.48560000  0.76470000  1
  H  H140  1  0.77210000  0.75000000  0.09840000  1
  H  H141  1  0.76530000  0.93200000  0.22480000  1
  H  H142  1  0.76490000  0.69330000  0.87080000  1
  H  H143  1  0.75310000  0.89010000  0.77210000  1
  H  H144  1  0.74690000  0.60990000  0.27210000  1
  H  H145  1  0.73510000  0.80670000  0.37080000  1
  H  H146  1  0.73470000  0.56800000  0.72480000  1
  H  H147  1  0.72790000  0.75000000  0.59840000  1
  H  H148  1  0.70260000  0.01440000  0.26470000  1
  H  H149  1  0.70160000  0.62060000  0.15890000  1
  H  H150  1  0.69940000  0.59290000  0.83920000  1
  H  H151  1  0.69310000  0.21960000  0.27000000  1
  H  H152  1  0.67680000  0.96020000  0.73430000  1
  H  H153  1  0.65570000  0.62600000  0.69130000  1
  H  H154  1  0.65000000  0.65160000  0.30420000  1
  H  H155  1  0.64980000  0.10590000  0.73310000  1
  H  H156  1  0.63110000  0.67810000  0.80310000  1
  H  H157  1  0.63100000  0.44410000  0.44740000  1
  H  H158  1  0.62700000  0.57610000  0.45640000  1
  H  H159  1  0.62610000  0.69890000  0.19400000  1
  H  H160  1  0.62540000  0.91110000  0.97860000  1
  H  H161  1  0.62290000  0.04180000  0.96700000  1
  H  H162  1  0.59860000  0.09500000  0.27660000  1
  H  H163  1  0.58950000  0.05740000  0.72650000  1
  H  H164  1  0.58390000  0.72510000  0.33880000  1
  H  H165  1  0.58300000  0.78130000  0.22560000  1
  H  H166  1  0.57460000  0.74070000  0.76860000  1
  H  H167  1  0.57010000  0.69160000  0.65760000  1
  H  H168  1  0.55200000  0.16420000  0.14300000  1
  H  H169  1  0.55170000  0.42450000  0.51900000  1
  H  H170  1  0.54960000  0.16310000  0.05450000  1
  H  H171  1  0.54230000  0.15310000  0.95860000  1
  H  H172  1  0.53850000  0.13830000  0.92220000  1
  H  H173  1  0.52480000  0.51040000  0.99910000  1
  H  H174  1  0.50990000  0.85300000  0.26480000  1
  H  H175  1  0.50780000  0.81650000  0.73370000  1
  H  H176  1  0.49220000  0.18350000  0.26630000  1
  H  H177  1  0.49010000  0.14700000  0.73520000  1
  H  H178  1  0.47520000  0.48960000  0.00090000  1
  H  H179  1  0.46150000  0.86170000  0.07780000  1
  H  H180  1  0.45770000  0.84690000  0.04140000  1
  H  H181  1  0.45040000  0.83690000  0.94550000  1
  H  H182  1  0.44830000  0.57550000  0.48100000  1
  H  H183  1  0.44800000  0.83580000  0.85700000  1
  H  H184  1  0.42990000  0.30840000  0.34240000  1
  H  H185  1  0.42540000  0.25930000  0.23140000  1
  H  H186  1  0.41700000  0.21870000  0.77440000  1
  H  H187  1  0.41610000  0.27490000  0.66120000  1
  H  H188  1  0.41050000  0.94260000  0.27350000  1
  H  H189  1  0.40140000  0.90500000  0.72340000  1
  H  H190  1  0.37710000  0.95820000  0.03300000  1
  H  H191  1  0.37460000  0.08890000  0.02140000  1
  H  H192  1  0.37390000  0.30110000  0.80600000  1
  H  H193  1  0.37300000  0.42390000  0.54360000  1
  H  H194  1  0.36900000  0.55590000  0.55260000  1
  H  H195  1  0.36890000  0.32190000  0.19690000  1
  H  H196  1  0.35020000  0.89410000  0.26690000  1
  H  H197  1  0.35000000  0.34840000  0.69580000  1
  H  H198  1  0.34430000  0.37400000  0.30870000  1
  H  H199  1  0.32320000  0.03980000  0.26570000  1
  H  H200  1  0.30690000  0.78040000  0.73000000  1
  H  H201  1  0.30060000  0.40710000  0.16080000  1
  H  H202  1  0.29840000  0.37940000  0.84110000  1
  H  H203  1  0.29740000  0.98560000  0.73530000  1
  H  H204  1  0.27210000  0.25000000  0.40160000  1
  H  H205  1  0.26530000  0.43200000  0.27520000  1
  H  H206  1  0.26490000  0.19330000  0.62920000  1
  H  H207  1  0.25310000  0.39010000  0.72790000  1
  H  H208  1  0.24690000  0.10990000  0.22790000  1
  H  H209  1  0.23510000  0.30670000  0.12920000  1
  H  H210  1  0.23470000  0.06800000  0.77520000  1
  H  H211  1  0.22790000  0.25000000  0.90160000  1
  H  H212  1  0.20260000  0.51440000  0.23530000  1
  H  H213  1  0.20160000  0.12060000  0.34110000  1
  H  H214  1  0.19940000  0.09290000  0.66080000  1
  H  H215  1  0.19310000  0.71960000  0.23000000  1
  H  H216  1  0.17680000  0.46020000  0.76570000  1
  H  H217  1  0.15570000  0.12600000  0.80870000  1
  H  H218  1  0.15000000  0.15160000  0.19580000  1
  H  H219  1  0.14980000  0.60590000  0.76690000  1
  H  H220  1  0.13110000  0.17810000  0.69690000  1
  H  H221  1  0.13100000  0.94410000  0.05260000  1
  H  H222  1  0.12700000  0.07610000  0.04360000  1
  H  H223  1  0.12610000  0.19890000  0.30600000  1
  H  H224  1  0.12540000  0.41110000  0.52140000  1
  H  H225  1  0.12290000  0.54180000  0.53300000  1
  H  H226  1  0.09860000  0.59500000  0.22340000  1
  H  H227  1  0.08950000  0.55740000  0.77350000  1
  H  H228  1  0.08390000  0.22510000  0.16120000  1
  H  H229  1  0.08300000  0.28130000  0.27440000  1
  H  H230  1  0.07460000  0.24070000  0.73140000  1
  H  H231  1  0.07010000  0.19160000  0.84240000  1
  H  H232  1  0.05200000  0.66420000  0.35700000  1
  H  H233  1  0.05170000  0.92450000  0.98100000  1
  H  H234  1  0.04960000  0.66310000  0.44550000  1
  H  H235  1  0.04230000  0.65310000  0.54140000  1
  H  H236  1  0.03850000  0.63830000  0.57780000  1
  H  H237  1  0.02480000  0.01040000  0.50090000  1
  H  H238  1  0.00990000  0.35300000  0.23520000  1
  H  H239  1  0.00780000  0.31650000  0.76630000  1
  C  C240  1  0.96400000  0.72400000  0.22450000  1
  C  C241  1  0.95900000  0.68800000  0.77270000  1
  C  C242  1  0.92610000  0.79440000  0.18040000  1
  C  C243  1  0.92100000  0.76840000  0.24550000  1
  C  C244  1  0.91680000  0.76260000  0.81590000  1
  C  C245  1  0.91590000  0.73020000  0.74860000  1
  C  C246  1  0.87700000  0.83650000  0.20100000  1
  C  C247  1  0.87630000  0.80600000  0.79560000  1
  C  C248  1  0.87290000  0.82550000  0.23510000  1
  C  C249  1  0.87140000  0.79070000  0.76140000  1
  C  C250  1  0.83600000  0.86010000  0.29440000  1
  C  C251  1  0.83560000  0.83400000  0.70320000  1
  C  C252  1  0.82700000  0.87190000  0.25960000  1
  C  C253  1  0.82540000  0.48150000  0.46550000  1
  C  C254  1  0.82520000  0.83880000  0.73790000  1
  C  C255  1  0.82430000  0.56050000  0.47270000  1
  C  C256  1  0.82200000  0.94710000  0.96000000  1
  C  C257  1  0.81930000  0.02710000  0.95370000  1
  C  C258  1  0.79100000  0.91040000  0.31600000  1
  C  C259  1  0.78740000  0.87990000  0.68200000  1
  C  C260  1  0.78310000  0.57200000  0.22590000  1
  C  C261  1  0.77400000  0.92600000  0.24790000  1
  C  C262  1  0.76710000  0.52600000  0.77250000  1
  C  C263  1  0.76370000  0.88600000  0.74900000  1
  C  C264  1  0.75370000  0.90260000  0.97110000  1
  C  C265  1  0.74630000  0.59740000  0.47110000  1
  C  C266  1  0.73630000  0.61400000  0.24900000  1
  C  C267  1  0.73290000  0.97400000  0.27250000  1
  C  C268  1  0.72600000  0.57400000  0.74790000  1
  C  C269  1  0.71690000  0.92800000  0.72590000  1
  C  C270  1  0.71260000  0.62010000  0.18200000  1
  C  C271  1  0.70900000  0.58960000  0.81600000  1
  C  C272  1  0.68070000  0.47290000  0.45370000  1
  C  C273  1  0.67800000  0.55290000  0.46000000  1
  C  C274  1  0.67570000  0.93950000  0.97270000  1
  C  C275  1  0.67480000  0.66120000  0.23790000  1
  C  C276  1  0.67460000  0.01850000  0.96550000  1
  C  C277  1  0.67300000  0.62810000  0.75960000  1
  C  C278  1  0.66440000  0.66600000  0.20320000  1
  C  C279  1  0.66400000  0.63990000  0.79440000  1
  C  C280  1  0.62860000  0.70930000  0.26140000  1
  C  C281  1  0.62710000  0.67450000  0.73510000  1
  C  C282  1  0.62370000  0.69400000  0.29560000  1
  C  C283  1  0.62300000  0.66350000  0.70100000  1
  C  C284  1  0.58410000  0.76980000  0.24860000  1
  C  C285  1  0.58320000  0.73740000  0.31590000  1
  C  C286  1  0.57900000  0.73160000  0.74550000  1
  C  C287  1  0.57390000  0.70560000  0.68040000  1
  C  C288  1  0.54100000  0.81200000  0.27270000  1
  C  C289  1  0.53600000  0.77600000  0.72450000  1
  C  C290  1  0.46400000  0.22400000  0.27550000  1
  C  C291  1  0.45900000  0.18800000  0.72730000  1
  C  C292  1  0.42610000  0.29440000  0.31960000  1
  C  C293  1  0.42100000  0.26840000  0.25450000  1
  C  C294  1  0.41680000  0.26260000  0.68410000  1
  C  C295  1  0.41590000  0.23020000  0.75140000  1
  C  C296  1  0.37700000  0.33650000  0.29900000  1
  C  C297  1  0.37630000  0.30600000  0.70440000  1
  C  C298  1  0.37290000  0.32550000  0.26490000  1
  C  C299  1  0.37140000  0.29070000  0.73860000  1
  C  C300  1  0.33600000  0.36010000  0.20560000  1
  C  C301  1  0.33560000  0.33400000  0.79680000  1
  C  C302  1  0.32700000  0.37190000  0.24040000  1
  C  C303  1  0.32540000  0.98150000  0.03450000  1
  C  C304  1  0.32520000  0.33880000  0.76210000  1
  C  C305  1  0.32430000  0.06050000  0.02730000  1
  C  C306  1  0.32200000  0.44710000  0.54000000  1
  C  C307  1  0.31930000  0.52710000  0.54630000  1
  C  C308  1  0.29100000  0.41040000  0.18400000  1
  C  C309  1  0.28740000  0.37990000  0.81800000  1
  C  C310  1  0.28310000  0.07200000  0.27410000  1
  C  C311  1  0.27400000  0.42600000  0.25210000  1
  C  C312  1  0.26710000  0.02600000  0.72750000  1
  C  C313  1  0.26370000  0.38600000  0.75100000  1
  C  C314  1  0.25370000  0.40260000  0.52890000  1
  C  C315  1  0.24630000  0.09740000  0.02890000  1
  C  C316  1  0.23630000  0.11400000  0.25100000  1
  C  C317  1  0.23290000  0.47400000  0.22750000  1
  C  C318  1  0.22600000  0.07400000  0.75210000  1
  C  C319  1  0.21690000  0.42800000  0.77410000  1
  C  C320  1  0.21260000  0.12010000  0.31800000  1
  C  C321  1  0.20900000  0.08960000  0.68400000  1
  C  C322  1  0.18070000  0.97290000  0.04630000  1
  C  C323  1  0.17800000  0.05290000  0.04000000  1
  C  C324  1  0.17570000  0.43950000  0.52730000  1
  C  C325  1  0.17480000  0.16120000  0.26210000  1
  C  C326  1  0.17460000  0.51850000  0.53450000  1
  C  C327  1  0.17300000  0.12810000  0.74040000  1
  C  C328  1  0.16440000  0.16600000  0.29680000  1
  C  C329  1  0.16400000  0.13990000  0.70560000  1
  C  C330  1  0.12860000  0.20930000  0.23860000  1
  C  C331  1  0.12710000  0.17450000  0.76490000  1
  C  C332  1  0.12370000  0.19400000  0.20440000  1
  C  C333  1  0.12300000  0.16350000  0.79900000  1
  C  C334  1  0.08410000  0.26980000  0.25140000  1
  C  C335  1  0.08320000  0.23740000  0.18410000  1
  C  C336  1  0.07900000  0.23160000  0.75450000  1
  C  C337  1  0.07390000  0.20560000  0.81960000  1
  C  C338  1  0.04100000  0.31200000  0.22730000  1
  C  C339  1  0.03600000  0.27600000  0.77550000  1
  N  N340  1  0.96860000  0.73610000  0.19030000  1
  N  N341  1  0.95990000  0.70100000  0.80660000  1
  N  N342  1  0.77300000  0.57620000  0.19330000  1
  N  N343  1  0.76330000  0.53900000  0.80590000  1
  N  N344  1  0.75500000  0.43750000  0.45660000  1
  N  N345  1  0.74500000  0.06250000  0.95660000  1
  N  N346  1  0.73670000  0.96100000  0.30590000  1
  N  N347  1  0.72700000  0.92380000  0.69330000  1
  N  N348  1  0.54010000  0.79900000  0.30660000  1
  N  N349  1  0.53140000  0.76390000  0.69030000  1
  N  N350  1  0.46860000  0.23610000  0.30970000  1
  N  N351  1  0.45990000  0.20100000  0.69340000  1
  N  N352  1  0.27300000  0.07620000  0.30670000  1
  N  N353  1  0.26330000  0.03900000  0.69410000  1
  N  N354  1  0.25500000  0.93750000  0.04340000  1
  N  N355  1  0.24500000  0.56250000  0.54340000  1
  N  N356  1  0.23670000  0.46100000  0.19410000  1
  N  N357  1  0.22700000  0.42380000  0.80670000  1
  N  N358  1  0.04010000  0.29900000  0.19340000  1
  N  N359  1  0.03140000  0.26390000  0.80970000  1
  O  O360  1  0.97910000  0.36070000  0.47680000  1
  O  O361  1  0.97660000  0.22960000  0.03490000  1
  O  O362  1  0.97390000  0.35600000  0.53760000  1
  O  O363  1  0.97370000  0.22440000  0.97360000  1
  O  O364  1  0.97080000  0.10150000  0.00370000  1
  O  O365  1  0.95690000  0.57060000  0.18810000  1
  O  O366  1  0.94580000  0.53340000  0.81030000  1
  O  O367  1  0.94580000  0.29070000  0.13060000  1
  O  O368  1  0.94540000  0.47040000  0.23710000  1
  O  O369  1  0.94460000  0.35370000  0.40280000  1
  O  O370  1  0.94400000  0.25930000  0.87500000  1
  O  O371  1  0.94290000  0.33170000  0.62240000  1
  O  O372  1  0.93460000  0.43140000  0.76460000  1
  O  O373  1  0.93410000  0.95840000  0.49610000  1
  O  O374  1  0.92910000  0.23330000  0.50520000  1
  O  O375  1  0.92790000  0.68290000  0.91860000  1
  O  O376  1  0.92060000  0.70980000  0.07810000  1
  O  O377  1  0.92010000  0.33830000  0.93200000  1
  O  O378  1  0.91900000  0.42500000  0.87850000  1
  O  O379  1  0.90820000  0.34860000  0.06720000  1
  O  O380  1  0.89570000  0.63030000  0.13160000  1
  O  O381  1  0.89350000  0.22160000  0.38330000  1
  O  O382  1  0.88790000  0.60150000  0.86630000  1
  O  O383  1  0.88480000  0.19460000  0.62930000  1
  O  O384  1  0.87670000  0.41530000  0.17440000  1
  O  O385  1  0.87430000  0.08780000  0.50470000  1
  O  O386  1  0.86120000  0.26770000  0.57510000  1
  O  O387  1  0.85960000  0.37340000  0.81910000  1
  O  O388  1  0.85410000  0.08050000  0.58150000  1
  O  O389  1  0.85000000  0.09810000  0.42590000  1
  O  O390  1  0.84550000  0.20120000  0.08280000  1
  O  O391  1  0.84440000  0.26890000  0.43940000  1
  O  O392  1  0.84280000  0.19320000  0.92950000  1
  O  O393  1  0.84100000  0.17980000  0.00540000  1
  O  O394  1  0.83260000  0.34160000  0.50670000  1
  O  O395  1  0.82260000  0.44310000  0.93170000  1
  O  O396  1  0.81420000  0.27560000  0.17650000  1
  O  O397  1  0.81380000  0.45280000  0.06790000  1
  O  O398  1  0.81110000  0.36320000  0.22720000  1
  O  O399  1  0.80450000  0.71160000  0.88250000  1
  O  O400  1  0.80390000  0.60830000  0.07960000  1
  O  O401  1  0.80310000  0.96690000  0.53200000  1
  O  O402  1  0.80280000  0.23800000  0.83360000  1
  O  O403  1  0.79520000  0.33100000  0.38510000  1
  O  O404  1  0.79510000  0.59410000  0.91940000  1
  O  O405  1  0.79450000  0.72870000  0.11430000  1
  O  O406  1  0.79430000  0.14950000  0.33190000  1
  O  O407  1  0.79330000  0.98220000  0.47120000  1
  O  O408  1  0.79060000  0.32650000  0.89380000  1
  O  O409  1  0.78660000  0.30530000  0.62850000  1
  O  O410  1  0.78640000  0.34290000  0.10910000  1
  O  O411  1  0.78200000  0.11500000  0.67600000  1
  O  O412  1  0.76570000  0.29940000  0.77870000  1
  O  O413  1  0.75600000  0.32200000  0.04320000  1
  O  O414  1  0.75560000  0.49860000  0.12880000  1
  O  O415  1  0.75400000  0.02420000  0.37260000  1
  O  O416  1  0.74600000  0.47580000  0.87260000  1
  O  O417  1  0.74440000  0.00140000  0.62880000  1
  O  O418  1  0.74400000  0.17800000  0.54320000  1
  O  O419  1  0.73430000  0.20060000  0.27870000  1
  O  O420  1  0.71800000  0.38500000  0.17600000  1
  O  O421  1  0.71360000  0.15710000  0.60910000  1
  O  O422  1  0.71340000  0.19470000  0.12850000  1
  O  O423  1  0.70940000  0.17350000  0.39380000  1
  O  O424  1  0.70670000  0.51780000  0.97120000  1
  O  O425  1  0.70570000  0.35050000  0.83190000  1
  O  O426  1  0.70550000  0.77130000  0.61430000  1
  O  O427  1  0.70490000  0.90590000  0.41940000  1
  O  O428  1  0.70480000  0.16900000  0.88510000  1
  O  O429  1  0.69720000  0.26200000  0.33360000  1
  O  O430  1  0.69690000  0.53310000  0.03200000  1
  O  O431  1  0.69610000  0.89170000  0.57960000  1
  O  O432  1  0.69550000  0.78840000  0.38250000  1
  O  O433  1  0.68890000  0.13680000  0.72720000  1
  O  O434  1  0.68620000  0.04720000  0.56790000  1
  O  O435  1  0.68580000  0.22440000  0.67650000  1
  O  O436  1  0.67740000  0.05690000  0.43170000  1
  O  O437  1  0.66740000  0.15840000  0.00670000  1
  O  O438  1  0.65900000  0.32020000  0.50540000  1
  O  O439  1  0.65720000  0.30680000  0.42950000  1
  O  O440  1  0.65560000  0.23110000  0.93940000  1
  O  O441  1  0.65450000  0.29880000  0.58280000  1
  O  O442  1  0.65000000  0.40190000  0.92590000  1
  O  O443  1  0.64590000  0.41950000  0.08150000  1
  O  O444  1  0.64040000  0.12660000  0.31910000  1
  O  O445  1  0.63880000  0.23230000  0.07510000  1
  O  O446  1  0.62570000  0.41220000  0.00470000  1
  O  O447  1  0.62330000  0.08470000  0.67440000  1
  O  O448  1  0.61520000  0.30540000  0.12930000  1
  O  O449  1  0.61210000  0.89850000  0.36630000  1
  O  O450  1  0.60650000  0.27840000  0.88330000  1
  O  O451  1  0.60430000  0.86970000  0.63160000  1
  O  O452  1  0.59180000  0.15140000  0.56720000  1
  O  O453  1  0.58100000  0.07500000  0.37850000  1
  O  O454  1  0.57990000  0.16170000  0.43200000  1
  O  O455  1  0.57940000  0.79020000  0.57810000  1
  O  O456  1  0.57210000  0.81710000  0.41860000  1
  O  O457  1  0.57090000  0.26670000  0.00520000  1
  O  O458  1  0.56590000  0.54160000  0.99610000  1
  O  O459  1  0.56540000  0.06860000  0.26460000  1
  O  O460  1  0.55710000  0.16830000  0.12240000  1
  O  O461  1  0.55600000  0.24070000  0.37500000  1
  O  O462  1  0.55540000  0.14630000  0.90280000  1
  O  O463  1  0.55460000  0.02960000  0.73710000  1
  O  O464  1  0.55420000  0.20930000  0.63060000  1
  O  O465  1  0.55420000  0.96660000  0.31030000  1
  O  O466  1  0.54310000  0.92940000  0.68810000  1
  O  O467  1  0.52920000  0.39850000  0.50370000  1
  O  O468  1  0.52630000  0.27560000  0.47360000  1
  O  O469  1  0.52610000  0.14400000  0.03760000  1
  O  O470  1  0.52340000  0.27040000  0.53490000  1
  O  O471  1  0.52090000  0.13930000  0.97680000  1
  O  O472  1  0.47910000  0.86070000  0.02320000  1
  O  O473  1  0.47660000  0.72960000  0.46510000  1
  O  O474  1  0.47390000  0.85600000  0.96240000  1
  O  O475  1  0.47370000  0.72440000  0.52640000  1
  O  O476  1  0.47080000  0.60150000  0.49630000  1
  O  O477  1  0.45690000  0.07060000  0.31190000  1
  O  O478  1  0.44580000  0.03340000  0.68970000  1
  O  O479  1  0.44580000  0.79070000  0.36940000  1
  O  O480  1  0.44540000  0.97040000  0.26290000  1
  O  O481  1  0.44460000  0.85370000  0.09720000  1
  O  O482  1  0.44400000  0.75930000  0.62500000  1
  O  O483  1  0.44290000  0.83170000  0.87760000  1
  O  O484  1  0.43460000  0.93140000  0.73540000  1
  O  O485  1  0.43410000  0.45840000  0.00390000  1
  O  O486  1  0.42910000  0.73330000  0.99480000  1
  O  O487  1  0.42790000  0.18290000  0.58140000  1
  O  O488  1  0.42060000  0.20980000  0.42190000  1
  O  O489  1  0.42010000  0.83830000  0.56800000  1
  O  O490  1  0.41900000  0.92500000  0.62150000  1
  O  O491  1  0.40820000  0.84860000  0.43280000  1
  O  O492  1  0.39570000  0.13030000  0.36840000  1
  O  O493  1  0.39350000  0.72160000  0.11670000  1
  O  O494  1  0.38790000  0.10150000  0.63370000  1
  O  O495  1  0.38480000  0.69460000  0.87070000  1
  O  O496  1  0.37670000  0.91530000  0.32560000  1
  O  O497  1  0.37430000  0.58780000  0.99530000  1
  O  O498  1  0.36120000  0.76770000  0.92490000  1
  O  O499  1  0.35960000  0.87340000  0.68090000  1
  O  O500  1  0.35410000  0.58050000  0.91850000  1
  O  O501  1  0.35000000  0.59810000  0.07410000  1
  O  O502  1  0.34550000  0.70120000  0.41720000  1
  O  O503  1  0.34440000  0.76890000  0.06060000  1
  O  O504  1  0.34280000  0.69320000  0.57050000  1
  O  O505  1  0.34100000  0.67980000  0.49460000  1
  O  O506  1  0.33260000  0.84160000  0.99330000  1
  O  O507  1  0.32260000  0.94310000  0.56830000  1
  O  O508  1  0.31420000  0.77560000  0.32350000  1
  O  O509  1  0.31380000  0.95280000  0.43210000  1
  O  O510  1  0.31110000  0.86320000  0.27280000  1
  O  O511  1  0.30450000  0.21160000  0.61750000  1
  O  O512  1  0.30390000  0.10830000  0.42040000  1
  O  O513  1  0.30310000  0.46690000  0.96800000  1
  O  O514  1  0.30280000  0.73800000  0.66640000  1
  O  O515  1  0.29520000  0.83100000  0.11490000  1
  O  O516  1  0.29510000  0.09410000  0.58060000  1
  O  O517  1  0.29450000  0.22870000  0.38570000  1
  O  O518  1  0.29430000  0.64950000  0.16810000  1
  O  O519  1  0.29330000  0.48220000  0.02880000  1
  O  O520  1  0.29060000  0.82650000  0.60620000  1
  O  O521  1  0.28660000  0.80530000  0.87150000  1
  O  O522  1  0.28640000  0.84290000  0.39090000  1
  O  O523  1  0.28200000  0.61500000  0.82400000  1
  O  O524  1  0.26570000  0.79940000  0.72130000  1
  O  O525  1  0.25600000  0.82200000  0.45680000  1
  O  O526  1  0.25560000  0.99860000  0.37120000  1
  O  O527  1  0.25400000  0.52420000  0.12740000  1
  O  O528  1  0.24600000  0.97580000  0.62740000  1
  O  O529  1  0.24440000  0.50140000  0.87120000  1
  O  O530  1  0.24400000  0.67800000  0.95680000  1
  O  O531  1  0.23430000  0.70060000  0.22130000  1
  O  O532  1  0.21800000  0.88500000  0.32400000  1
  O  O533  1  0.21360000  0.65710000  0.89090000  1
  O  O534  1  0.21340000  0.69470000  0.37150000  1
  O  O535  1  0.20940000  0.67350000  0.10620000  1
  O  O536  1  0.20670000  0.01780000  0.52880000  1
  O  O537  1  0.20570000  0.85050000  0.66810000  1
  O  O538  1  0.20550000  0.27130000  0.88570000  1
  O  O539  1  0.20490000  0.40590000  0.08060000  1
  O  O540  1  0.20480000  0.66900000  0.61490000  1
  O  O541  1  0.19720000  0.76200000  0.16640000  1
  O  O542  1  0.19690000  0.03310000  0.46800000  1
  O  O543  1  0.19610000  0.39170000  0.92040000  1
  O  O544  1  0.19550000  0.28840000  0.11750000  1
  O  O545  1  0.18890000  0.63680000  0.77280000  1
  O  O546  1  0.18620000  0.54720000  0.93210000  1
  O  O547  1  0.18580000  0.72440000  0.82350000  1
  O  O548  1  0.17740000  0.55690000  0.06830000  1
  O  O549  1  0.16740000  0.65840000  0.49330000  1
  O  O550  1  0.15900000  0.82020000  0.99460000  1
  O  O551  1  0.15720000  0.80680000  0.07050000  1
  O  O552  1  0.15560000  0.73110000  0.56060000  1
  O  O553  1  0.15450000  0.79880000  0.91720000  1
  O  O554  1  0.15000000  0.90190000  0.57410000  1
  O  O555  1  0.14590000  0.91950000  0.41850000  1
  O  O556  1  0.14040000  0.62660000  0.18090000  1
  O  O557  1  0.13880000  0.73230000  0.42490000  1
  O  O558  1  0.12570000  0.91220000  0.49530000  1
  O  O559  1  0.12330000  0.58470000  0.82560000  1
  O  O560  1  0.11520000  0.80540000  0.37070000  1
  O  O561  1  0.11210000  0.39850000  0.13370000  1
  O  O562  1  0.10650000  0.77840000  0.61670000  1
  O  O563  1  0.10430000  0.36970000  0.86840000  1
  O  O564  1  0.09180000  0.65140000  0.93280000  1
  O  O565  1  0.08100000  0.57500000  0.12150000  1
  O  O566  1  0.07990000  0.66170000  0.06800000  1
  O  O567  1  0.07940000  0.29020000  0.92190000  1
  O  O568  1  0.07210000  0.31710000  0.08140000  1
  O  O569  1  0.07090000  0.76670000  0.49480000  1
  O  O570  1  0.06590000  0.04160000  0.50390000  1
  O  O571  1  0.06540000  0.56860000  0.23540000  1
  O  O572  1  0.05710000  0.66830000  0.37760000  1
  O  O573  1  0.05600000  0.74070000  0.12500000  1
  O  O574  1  0.05540000  0.64630000  0.59720000  1
  O  O575  1  0.05460000  0.52960000  0.76290000  1
  O  O576  1  0.05420000  0.70930000  0.86940000  1
  O  O577  1  0.05420000  0.46660000  0.18970000  1
  O  O578  1  0.04310000  0.42940000  0.81190000  1
  O  O579  1  0.02920000  0.89850000  0.99630000  1
  O  O580  1  0.02630000  0.77560000  0.02640000  1
  O  O581  1  0.02610000  0.64400000  0.46240000  1
  O  O582  1  0.02340000  0.77040000  0.96510000  1
  O  O583  1  0.02090000  0.63930000  0.52320000  1
