# generated using pymatgen
data_GdH6(C4O3)3
_symmetry_space_group_name_H-M   'P 1'
_cell_length_a   10.52260000
_cell_length_b   11.05450000
_cell_length_c   12.77110000
_cell_angle_alpha   103.82600000
_cell_angle_beta   110.02400000
_cell_angle_gamma   96.60200000
_symmetry_Int_Tables_number   1
_chemical_formula_structural   GdH6(C4O3)3
_chemical_formula_sum   'Gd2 H12 C24 O18'
_cell_volume   1323.40873461
_cell_formula_units_Z   2
loop_
 _symmetry_equiv_pos_site_id
 _symmetry_equiv_pos_as_xyz
  1  'x, y, z'
loop_
 _atom_site_type_symbol
 _atom_site_label
 _atom_site_symmetry_multiplicity
 _atom_site_fract_x
 _atom_site_fract_y
 _atom_site_fract_z
 _atom_site_occupancy
  Gd  Gd0  1  0.10304000  0.54783000  0.68168000  1
  Gd  Gd1  1  0.89696000  0.45217000  0.31832000  1
  H  H2  1  0.00180000  0.14870000  0.66070000  1
  H  H3  1  0.05690000  0.87430000  0.70320000  1
  H  H4  1  0.18400000  0.91650000  0.95330000  1
  H  H5  1  0.24830000  0.39540000  0.25780000  1
  H  H6  1  0.41180000  0.55930000  0.64240000  1
  H  H7  1  0.44100000  0.16280000  0.11380000  1
  H  H8  1  0.55900000  0.83720000  0.88620000  1
  H  H9  1  0.58820000  0.44070000  0.35760000  1
  H  H10  1  0.75170000  0.60460000  0.74220000  1
  H  H11  1  0.81600000  0.08350000  0.04670000  1
  H  H12  1  0.94310000  0.12570000  0.29680000  1
  H  H13  1  0.99820000  0.85130000  0.33930000  1
  C  C14  1  0.00130000  0.08840000  0.59580000  1
  C  C15  1  0.02180000  0.87880000  0.50660000  1
  C  C16  1  0.02350000  0.97010000  0.60520000  1
  C  C17  1  0.03860000  0.74640000  0.50720000  1
  C  C18  1  0.20630000  0.46870000  0.43890000  1
  C  C19  1  0.29530000  0.77160000  0.84670000  1
  C  C20  1  0.35730000  0.48460000  0.46930000  1
  C  C21  1  0.36410000  0.98840000  0.99510000  1
  C  C22  1  0.40010000  0.89090000  0.92640000  1
  C  C23  1  0.41100000  0.44920000  0.38250000  1
  C  C24  1  0.44750000  0.53520000  0.58510000  1
  C  C25  1  0.46450000  0.09720000  0.06810000  1
  C  C26  1  0.53550000  0.90280000  0.93190000  1
  C  C27  1  0.55250000  0.46480000  0.41490000  1
  C  C28  1  0.58900000  0.55080000  0.61750000  1
  C  C29  1  0.59990000  0.10910000  0.07360000  1
  C  C30  1  0.63590000  0.01160000  0.00490000  1
  C  C31  1  0.64270000  0.51540000  0.53070000  1
  C  C32  1  0.70470000  0.22840000  0.15330000  1
  C  C33  1  0.79370000  0.53130000  0.56110000  1
  C  C34  1  0.96140000  0.25360000  0.49280000  1
  C  C35  1  0.97650000  0.02990000  0.39480000  1
  C  C36  1  0.97820000  0.12120000  0.49340000  1
  C  C37  1  0.99870000  0.91160000  0.40420000  1
  O  O38  1  0.01660000  0.66630000  0.41240000  1
  O  O39  1  0.04500000  0.94720000  0.70830000  1
  O  O40  1  0.07310000  0.72550000  0.60570000  1
  O  O41  1  0.12560000  0.43000000  0.33170000  1
  O  O42  1  0.15900000  0.49370000  0.51760000  1
  O  O43  1  0.17550000  0.75440000  0.84840000  1
  O  O44  1  0.23510000  0.98520000  0.99640000  1
  O  O45  1  0.32930000  0.68990000  0.78070000  1
  O  O46  1  0.32980000  0.39850000  0.26700000  1
  O  O47  1  0.67020000  0.60150000  0.73300000  1
  O  O48  1  0.67070000  0.31010000  0.21930000  1
  O  O49  1  0.76490000  0.01480000  0.00360000  1
  O  O50  1  0.82450000  0.24560000  0.15160000  1
  O  O51  1  0.84100000  0.50630000  0.48240000  1
  O  O52  1  0.87440000  0.57000000  0.66830000  1
  O  O53  1  0.92690000  0.27450000  0.39430000  1
  O  O54  1  0.95500000  0.05280000  0.29170000  1
  O  O55  1  0.98340000  0.33370000  0.58760000  1
