# generated using pymatgen
data_Zn8H21C60(O5F3)5
_symmetry_space_group_name_H-M   'P 1'
_cell_length_a   30.14900000
_cell_length_b   37.22700000
_cell_length_c   37.22700000
_cell_angle_alpha   120.00000000
_cell_angle_beta   90.00000000
_cell_angle_gamma   90.00000000
_symmetry_Int_Tables_number   1
_chemical_formula_structural   Zn8H21C60(O5F3)5
_chemical_formula_sum   'Zn64 H168 C480 O200 F120'
_cell_volume   36184.25389189
_cell_formula_units_Z   8
loop_
 _symmetry_equiv_pos_site_id
 _symmetry_equiv_pos_as_xyz
  1  'x, y, z'
loop_
 _atom_site_type_symbol
 _atom_site_label
 _atom_site_symmetry_multiplicity
 _atom_site_fract_x
 _atom_site_fract_y
 _atom_site_fract_z
 _atom_site_occupancy
  Zn  Zn0  1  0.22140000  0.88950000  0.19160000  1
  Zn  Zn1  1  0.27860000  0.88950000  0.69790000  1
  Zn  Zn2  1  0.30179000  0.86035000  0.15800000  1
  Zn  Zn3  1  0.19821000  0.86035000  0.70235000  1
  Zn  Zn4  1  0.23877000  0.85832000  0.22507000  1
  Zn  Zn5  1  0.26123000  0.85832000  0.63325000  1
  Zn  Zn6  1  0.19821000  0.84200000  0.13965000  1
  Zn  Zn7  1  0.30179000  0.84200000  0.70235000  1
  Zn  Zn8  1  0.29330000  0.83530000  0.20760000  1
  Zn  Zn9  1  0.20670000  0.83530000  0.62770000  1
  Zn  Zn10  1  0.27860000  0.80840000  0.11050000  1
  Zn  Zn11  1  0.22140000  0.80840000  0.69790000  1
  Zn  Zn12  1  0.20670000  0.79240000  0.16470000  1
  Zn  Zn13  1  0.29330000  0.79240000  0.62770000  1
  Zn  Zn14  1  0.26123000  0.77493000  0.14168000  1
  Zn  Zn15  1  0.23877000  0.77493000  0.63325000  1
  Zn  Zn16  1  0.71812000  0.71901000  0.34199000  1
  Zn  Zn17  1  0.78188000  0.71901000  0.37702000  1
  Zn  Zn18  1  0.80179000  0.70235000  0.84200000  1
  Zn  Zn19  1  0.69821000  0.70235000  0.86035000  1
  Zn  Zn20  1  0.72140000  0.69790000  0.80840000  1
  Zn  Zn21  1  0.77860000  0.69790000  0.88950000  1
  Zn  Zn22  1  0.80640000  0.66666667  0.33333333  1
  Zn  Zn23  1  0.69360000  0.66666667  0.33333333  1
  Zn  Zn24  1  0.78188000  0.65801000  0.28099000  1
  Zn  Zn25  1  0.71812000  0.65801000  0.37702000  1
  Zn  Zn26  1  0.73877000  0.63325000  0.77493000  1
  Zn  Zn27  1  0.76123000  0.63325000  0.85832000  1
  Zn  Zn28  1  0.79330000  0.62770000  0.79240000  1
  Zn  Zn29  1  0.70670000  0.62770000  0.83530000  1
  Zn  Zn30  1  0.71812000  0.62298000  0.28099000  1
  Zn  Zn31  1  0.78188000  0.62298000  0.34199000  1
  Zn  Zn32  1  0.21812000  0.37702000  0.65801000  1
  Zn  Zn33  1  0.28188000  0.37702000  0.71901000  1
  Zn  Zn34  1  0.29330000  0.37230000  0.16470000  1
  Zn  Zn35  1  0.20670000  0.37230000  0.20760000  1
  Zn  Zn36  1  0.23877000  0.36675000  0.14168000  1
  Zn  Zn37  1  0.26123000  0.36675000  0.22507000  1
  Zn  Zn38  1  0.28188000  0.34199000  0.62298000  1
  Zn  Zn39  1  0.21812000  0.34199000  0.71901000  1
  Zn  Zn40  1  0.30640000  0.33333333  0.66666667  1
  Zn  Zn41  1  0.19360000  0.33333333  0.66666667  1
  Zn  Zn42  1  0.22140000  0.30210000  0.11050000  1
  Zn  Zn43  1  0.27860000  0.30210000  0.19160000  1
  Zn  Zn44  1  0.30179000  0.29765000  0.13965000  1
  Zn  Zn45  1  0.19821000  0.29765000  0.15800000  1
  Zn  Zn46  1  0.21812000  0.28099000  0.62298000  1
  Zn  Zn47  1  0.28188000  0.28099000  0.65801000  1
  Zn  Zn48  1  0.76123000  0.22507000  0.36675000  1
  Zn  Zn49  1  0.73877000  0.22507000  0.85832000  1
  Zn  Zn50  1  0.70670000  0.20760000  0.37230000  1
  Zn  Zn51  1  0.79330000  0.20760000  0.83530000  1
  Zn  Zn52  1  0.77860000  0.19160000  0.30210000  1
  Zn  Zn53  1  0.72140000  0.19160000  0.88950000  1
  Zn  Zn54  1  0.79330000  0.16470000  0.37230000  1
  Zn  Zn55  1  0.70670000  0.16470000  0.79240000  1
  Zn  Zn56  1  0.69821000  0.15800000  0.29765000  1
  Zn  Zn57  1  0.80179000  0.15800000  0.86035000  1
  Zn  Zn58  1  0.73877000  0.14168000  0.36675000  1
  Zn  Zn59  1  0.76123000  0.14168000  0.77493000  1
  Zn  Zn60  1  0.80179000  0.13965000  0.29765000  1
  Zn  Zn61  1  0.69821000  0.13965000  0.84200000  1
  Zn  Zn62  1  0.72140000  0.11050000  0.30210000  1
  Zn  Zn63  1  0.77860000  0.11050000  0.80840000  1
  H  H64  1  0.77850000  0.99940000  0.09690000  1
  H  H65  1  0.72150000  0.99940000  0.90250000  1
  H  H66  1  0.42890000  0.99400000  0.31360000  1
  H  H67  1  0.07110000  0.99400000  0.68040000  1
  H  H68  1  0.75000000  0.96635000  0.03365000  1
  H  H69  1  0.75000000  0.96635000  0.93270000  1
  H  H70  1  0.81190000  0.94930000  0.30740000  1
  H  H71  1  0.68810000  0.94930000  0.64190000  1
  H  H72  1  0.95580000  0.94750000  0.28450000  1
  H  H73  1  0.54420000  0.94750000  0.66300000  1
  H  H74  1  0.25000000  0.93270000  0.96635000  1
  H  H75  1  0.00550000  0.92140000  0.24250000  1
  H  H76  1  0.49450000  0.92140000  0.67890000  1
  H  H77  1  0.85020000  0.90930000  0.32230000  1
  H  H78  1  0.64980000  0.90930000  0.58700000  1
  H  H79  1  0.72150000  0.90310000  0.00060000  1
  H  H80  1  0.77850000  0.90310000  0.90250000  1
  H  H81  1  0.27850000  0.90250000  0.90310000  1
  H  H82  1  0.22150000  0.90250000  0.99940000  1
  H  H83  1  0.84020000  0.87450000  0.35840000  1
  H  H84  1  0.65980000  0.87450000  0.51610000  1
  H  H85  1  0.03420000  0.84730000  0.28910000  1
  H  H86  1  0.46580000  0.84730000  0.55820000  1
  H  H87  1  0.81870000  0.84530000  0.29550000  1
  H  H88  1  0.68130000  0.84530000  0.54980000  1
  H  H89  1  0.95950000  0.83820000  0.28160000  1
  H  H90  1  0.54050000  0.83820000  0.55660000  1
  H  H91  1  0.93360000  0.81650000  0.32980000  1
  H  H92  1  0.56640000  0.81650000  0.48670000  1
  H  H93  1  0.91250000  0.78630000  0.26550000  1
  H  H94  1  0.58750000  0.78630000  0.52080000  1
  H  H95  1  0.49450000  0.75750000  0.07860000  1
  H  H96  1  0.00550000  0.75750000  0.67890000  1
  H  H97  1  0.20600000  0.75600000  0.32570000  1
  H  H98  1  0.29400000  0.75600000  0.43030000  1
  H  H99  1  0.25000000  0.73800000  0.36900000  1
  H  H100  1  0.58750000  0.73450000  0.21370000  1
  H  H101  1  0.91250000  0.73450000  0.52080000  1
  H  H102  1  0.54050000  0.71840000  0.16180000  1
  H  H103  1  0.95950000  0.71840000  0.55660000  1
  H  H104  1  0.54420000  0.71550000  0.05250000  1
  H  H105  1  0.95580000  0.71550000  0.66300000  1
  H  H106  1  0.46580000  0.71090000  0.15270000  1
  H  H107  1  0.03420000  0.71090000  0.55820000  1
  H  H108  1  0.68130000  0.70450000  0.15470000  1
  H  H109  1  0.81870000  0.70450000  0.54980000  1
  H  H110  1  0.68810000  0.69260000  0.05070000  1
  H  H111  1  0.81190000  0.69260000  0.64190000  1
  H  H112  1  0.07110000  0.68640000  0.00600000  1
  H  H113  1  0.42890000  0.68640000  0.68040000  1
  H  H114  1  0.92890000  0.68040000  0.68640000  1
  H  H115  1  0.57110000  0.68040000  0.99400000  1
  H  H116  1  0.50550000  0.67890000  0.75750000  1
  H  H117  1  0.99450000  0.67890000  0.92140000  1
  H  H118  1  0.64980000  0.67770000  0.09070000  1
  H  H119  1  0.85020000  0.67770000  0.58700000  1
  H  H120  1  0.29400000  0.67430000  0.24400000  1
  H  H121  1  0.20600000  0.67430000  0.43030000  1
  H  H122  1  0.56640000  0.67020000  0.18350000  1
  H  H123  1  0.93360000  0.67020000  0.48670000  1
  H  H124  1  0.45580000  0.66300000  0.71550000  1
  H  H125  1  0.04420000  0.66300000  0.94750000  1
  H  H126  1  0.31190000  0.64190000  0.69260000  1
  H  H127  1  0.18810000  0.64190000  0.94930000  1
  H  H128  1  0.65980000  0.64160000  0.12550000  1
  H  H129  1  0.84020000  0.64160000  0.51610000  1
  H  H130  1  0.25000000  0.63100000  0.26200000  1
  H  H131  1  0.25000000  0.63100000  0.36900000  1
  H  H132  1  0.35020000  0.58700000  0.67770000  1
  H  H133  1  0.14980000  0.58700000  0.90930000  1
  H  H134  1  0.20600000  0.56970000  0.24400000  1
  H  H135  1  0.29400000  0.56970000  0.32570000  1
  H  H136  1  0.53420000  0.55820000  0.71090000  1
  H  H137  1  0.96580000  0.55820000  0.84730000  1
  H  H138  1  0.45950000  0.55660000  0.71840000  1
  H  H139  1  0.04050000  0.55660000  0.83820000  1
  H  H140  1  0.31870000  0.54980000  0.70450000  1
  H  H141  1  0.18130000  0.54980000  0.84530000  1
  H  H142  1  0.41250000  0.52080000  0.73450000  1
  H  H143  1  0.08750000  0.52080000  0.78630000  1
  H  H144  1  0.34020000  0.51610000  0.64160000  1
  H  H145  1  0.15980000  0.51610000  0.87450000  1
  H  H146  1  0.93360000  0.51330000  0.18350000  1
  H  H147  1  0.56640000  0.51330000  0.32980000  1
  H  H148  1  0.43360000  0.48670000  0.67020000  1
  H  H149  1  0.06640000  0.48670000  0.81650000  1
  H  H150  1  0.84020000  0.48390000  0.12550000  1
  H  H151  1  0.65980000  0.48390000  0.35840000  1
  H  H152  1  0.91250000  0.47920000  0.21370000  1
  H  H153  1  0.58750000  0.47920000  0.26550000  1
  H  H154  1  0.81870000  0.45020000  0.15470000  1
  H  H155  1  0.68130000  0.45020000  0.29550000  1
  H  H156  1  0.95950000  0.44340000  0.16180000  1
  H  H157  1  0.54050000  0.44340000  0.28160000  1
  H  H158  1  0.03420000  0.44180000  0.15270000  1
  H  H159  1  0.46580000  0.44180000  0.28910000  1
  H  H160  1  0.70600000  0.43030000  0.67430000  1
  H  H161  1  0.79400000  0.43030000  0.75600000  1
  H  H162  1  0.85020000  0.41300000  0.09070000  1
  H  H163  1  0.64980000  0.41300000  0.32230000  1
  H  H164  1  0.75000000  0.36900000  0.63100000  1
  H  H165  1  0.75000000  0.36900000  0.73800000  1
  H  H166  1  0.15980000  0.35840000  0.48390000  1
  H  H167  1  0.34020000  0.35840000  0.87450000  1
  H  H168  1  0.81190000  0.35810000  0.05070000  1
  H  H169  1  0.68810000  0.35810000  0.30740000  1
  H  H170  1  0.95580000  0.33700000  0.05250000  1
  H  H171  1  0.54420000  0.33700000  0.28450000  1
  H  H172  1  0.06640000  0.32980000  0.51330000  1
  H  H173  1  0.43360000  0.32980000  0.81650000  1
  H  H174  1  0.79400000  0.32570000  0.56970000  1
  H  H175  1  0.70600000  0.32570000  0.75600000  1
  H  H176  1  0.14980000  0.32230000  0.41300000  1
  H  H177  1  0.35020000  0.32230000  0.90930000  1
  H  H178  1  0.00550000  0.32110000  0.07860000  1
  H  H179  1  0.49450000  0.32110000  0.24250000  1
  H  H180  1  0.42890000  0.31960000  0.00600000  1
  H  H181  1  0.07110000  0.31960000  0.31360000  1
  H  H182  1  0.57110000  0.31360000  0.31960000  1
  H  H183  1  0.92890000  0.31360000  0.99400000  1
  H  H184  1  0.18810000  0.30740000  0.35810000  1
  H  H185  1  0.31190000  0.30740000  0.94930000  1
  H  H186  1  0.18130000  0.29550000  0.45020000  1
  H  H187  1  0.31870000  0.29550000  0.84530000  1
  H  H188  1  0.96580000  0.28910000  0.44180000  1
  H  H189  1  0.53420000  0.28910000  0.84730000  1
  H  H190  1  0.04420000  0.28450000  0.33700000  1
  H  H191  1  0.45580000  0.28450000  0.94750000  1
  H  H192  1  0.04050000  0.28160000  0.44340000  1
  H  H193  1  0.45950000  0.28160000  0.83820000  1
  H  H194  1  0.08750000  0.26550000  0.47920000  1
  H  H195  1  0.41250000  0.26550000  0.78630000  1
  H  H196  1  0.75000000  0.26200000  0.63100000  1
  H  H197  1  0.70600000  0.24400000  0.56970000  1
  H  H198  1  0.79400000  0.24400000  0.67430000  1
  H  H199  1  0.99450000  0.24250000  0.32110000  1
  H  H200  1  0.50550000  0.24250000  0.92140000  1
  H  H201  1  0.41250000  0.21370000  0.47920000  1
  H  H202  1  0.08750000  0.21370000  0.73450000  1
  H  H203  1  0.43360000  0.18350000  0.51330000  1
  H  H204  1  0.06640000  0.18350000  0.67020000  1
  H  H205  1  0.45950000  0.16180000  0.44340000  1
  H  H206  1  0.04050000  0.16180000  0.71840000  1
  H  H207  1  0.31870000  0.15470000  0.45020000  1
  H  H208  1  0.18130000  0.15470000  0.70450000  1
  H  H209  1  0.53420000  0.15270000  0.44180000  1
  H  H210  1  0.96580000  0.15270000  0.71090000  1
  H  H211  1  0.34020000  0.12550000  0.48390000  1
  H  H212  1  0.15980000  0.12550000  0.64160000  1
  H  H213  1  0.77850000  0.09750000  0.00060000  1
  H  H214  1  0.72150000  0.09750000  0.09690000  1
  H  H215  1  0.22150000  0.09690000  0.09750000  1
  H  H216  1  0.27850000  0.09690000  0.99940000  1
  H  H217  1  0.35020000  0.09070000  0.41300000  1
  H  H218  1  0.14980000  0.09070000  0.67770000  1
  H  H219  1  0.50550000  0.07860000  0.32110000  1
  H  H220  1  0.99450000  0.07860000  0.75750000  1
  H  H221  1  0.75000000  0.06730000  0.03365000  1
  H  H222  1  0.45580000  0.05250000  0.33700000  1
  H  H223  1  0.04420000  0.05250000  0.71550000  1
  H  H224  1  0.31190000  0.05070000  0.35810000  1
  H  H225  1  0.18810000  0.05070000  0.69260000  1
  H  H226  1  0.25000000  0.03365000  0.06730000  1
  H  H227  1  0.25000000  0.03365000  0.96635000  1
  H  H228  1  0.92890000  0.00600000  0.31960000  1
  H  H229  1  0.57110000  0.00600000  0.68640000  1
  H  H230  1  0.27850000  0.00060000  0.09750000  1
  H  H231  1  0.22150000  0.00060000  0.90310000  1
  C  C232  1  0.39800000  0.99340000  0.31310000  1
  C  C233  1  0.10200000  0.99340000  0.68030000  1
  C  C234  1  0.30590000  0.99140000  0.31140000  1
  C  C235  1  0.19410000  0.99140000  0.68000000  1
  C  C236  1  0.75000000  0.98080000  0.01920000  1
  C  C237  1  0.75000000  0.98080000  0.96160000  1
  C  C238  1  0.25000000  0.97640000  0.02360000  1
  C  C239  1  0.25000000  0.97640000  0.95280000  1
  C  C240  1  0.26710000  0.97379000  0.08519000  1
  C  C241  1  0.23290000  0.97379000  0.88860000  1
  C  C242  1  0.82790000  0.97270000  0.31240000  1
  C  C243  1  0.67210000  0.97270000  0.66030000  1
  C  C244  1  0.87400000  0.97170000  0.31220000  1
  C  C245  1  0.62600000  0.97170000  0.65950000  1
  C  C246  1  0.25000000  0.96160000  0.98080000  1
  C  C247  1  0.37600000  0.95740000  0.28480000  1
  C  C248  1  0.12400000  0.95740000  0.67260000  1
  C  C249  1  0.32990000  0.95640000  0.28400000  1
  C  C250  1  0.17010000  0.95640000  0.67240000  1
  C  C251  1  0.25000000  0.95510000  0.04490000  1
  C  C252  1  0.25000000  0.95510000  0.91020000  1
  C  C253  1  0.75000000  0.95280000  0.97640000  1
  C  C254  1  0.26710000  0.95205000  0.10696000  1
  C  C255  1  0.23290000  0.95205000  0.84509000  1
  C  C256  1  0.89920000  0.93440000  0.30480000  1
  C  C257  1  0.60080000  0.93440000  0.62960000  1
  C  C258  1  0.94220000  0.92780000  0.28910000  1
  C  C259  1  0.55780000  0.92780000  0.63870000  1
  C  C260  1  0.30760000  0.91930000  0.24910000  1
  C  C261  1  0.19240000  0.91930000  0.67020000  1
  C  C262  1  0.23290000  0.91481000  0.02621000  1
  C  C263  1  0.26710000  0.91481000  0.88860000  1
  C  C264  1  0.25000000  0.91175000  0.08826000  1
  C  C265  1  0.25000000  0.91175000  0.82350000  1
  C  C266  1  0.75000000  0.91020000  0.95510000  1
  C  C267  1  0.87890000  0.90490000  0.31180000  1
  C  C268  1  0.62110000  0.90490000  0.59310000  1
  C  C269  1  0.02550000  0.90460000  0.24630000  1
  C  C270  1  0.47450000  0.90460000  0.65830000  1
  C  C271  1  0.06800000  0.89870000  0.22990000  1
  C  C272  1  0.43200000  0.89870000  0.66880000  1
  C  C273  1  0.23290000  0.89304000  0.04795000  1
  C  C274  1  0.26710000  0.89304000  0.84509000  1
  C  C275  1  0.96470000  0.89180000  0.28050000  1
  C  C276  1  0.53530000  0.89180000  0.61130000  1
  C  C277  1  0.76710000  0.88860000  0.91481000  1
  C  C278  1  0.73290000  0.88860000  0.97379000  1
  C  C279  1  0.25000000  0.88850000  0.11150000  1
  C  C280  1  0.25000000  0.88850000  0.77700000  1
  C  C281  1  0.01280000  0.88540000  0.26860000  1
  C  C282  1  0.48720000  0.88540000  0.61680000  1
  C  C283  1  0.09780000  0.87350000  0.23560000  1
  C  C284  1  0.40220000  0.87350000  0.63790000  1
  C  C285  1  0.90140000  0.86890000  0.30310000  1
  C  C286  1  0.59860000  0.86890000  0.56580000  1
  C  C287  1  0.94440000  0.86230000  0.28740000  1
  C  C288  1  0.55560000  0.86230000  0.57490000  1
  C  C289  1  0.14230000  0.86040000  0.21510000  1
  C  C290  1  0.35770000  0.86040000  0.64530000  1
  C  C291  1  0.04270000  0.86020000  0.27420000  1
  C  C292  1  0.45730000  0.86020000  0.58600000  1
  C  C293  1  0.08520000  0.85430000  0.25780000  1
  C  C294  1  0.41480000  0.85430000  0.59650000  1
  C  C295  1  0.84750000  0.84670000  0.34140000  1
  C  C296  1  0.65250000  0.84670000  0.50530000  1
  C  C297  1  0.76710000  0.84509000  0.89304000  1
  C  C298  1  0.73290000  0.84509000  0.95205000  1
  C  C299  1  0.87990000  0.83540000  0.31110000  1
  C  C300  1  0.62010000  0.83540000  0.52430000  1
  C  C301  1  0.83470000  0.82870000  0.30300000  1
  C  C302  1  0.66530000  0.82870000  0.52570000  1
  C  C303  1  0.75000000  0.82349000  0.91174000  1
  C  C304  1  0.82580000  0.81640000  0.34630000  1
  C  C305  1  0.67420000  0.81640000  0.47010000  1
  C  C306  1  0.90350000  0.81180000  0.32410000  1
  C  C307  1  0.59650000  0.81180000  0.48770000  1
  C  C308  1  0.81350000  0.79730000  0.30630000  1
  C  C309  1  0.68650000  0.79730000  0.49100000  1
  C  C310  1  0.89080000  0.79380000  0.28570000  1
  C  C311  1  0.60920000  0.79380000  0.50810000  1
  C  C312  1  0.35770000  0.78490000  0.13960000  1
  C  C313  1  0.14230000  0.78490000  0.64530000  1
  C  C314  1  0.88200000  0.78100000  0.32820000  1
  C  C315  1  0.61800000  0.78100000  0.45280000  1
  C  C316  1  0.25000000  0.77820000  0.22180000  1
  C  C317  1  0.25000000  0.77820000  0.55640000  1
  C  C318  1  0.75000000  0.77700000  0.88850000  1
  C  C319  1  0.83670000  0.77480000  0.32080000  1
  C  C320  1  0.66330000  0.77480000  0.45400000  1
  C  C321  1  0.43200000  0.77010000  0.10130000  1
  C  C322  1  0.06800000  0.77010000  0.66880000  1
  C  C323  1  0.22340000  0.76850000  0.28026000  1
  C  C324  1  0.27660000  0.76850000  0.48824000  1
  C  C325  1  0.40220000  0.76440000  0.12650000  1
  C  C326  1  0.09780000  0.76440000  0.63790000  1
  C  C327  1  0.86920000  0.76350000  0.29050000  1
  C  C328  1  0.63080000  0.76350000  0.47300000  1
  C  C329  1  0.25000000  0.75492000  0.50983000  1
  C  C330  1  0.25000000  0.75491000  0.24508000  1
  C  C331  1  0.47450000  0.75370000  0.09540000  1
  C  C332  1  0.02550000  0.75370000  0.65830000  1
  C  C333  1  0.19240000  0.75090000  0.08070000  1
  C  C334  1  0.30760000  0.75090000  0.67020000  1
  C  C335  1  0.22350000  0.74690000  0.30218000  1
  C  C336  1  0.27650000  0.74690000  0.44472000  1
  C  C337  1  0.41480000  0.74220000  0.14570000  1
  C  C338  1  0.08520000  0.74220000  0.59650000  1
  C  C339  1  0.81110000  0.74140000  0.32300000  1
  C  C340  1  0.68890000  0.74140000  0.41840000  1
  C  C341  1  0.48720000  0.73140000  0.11460000  1
  C  C342  1  0.01280000  0.73140000  0.61680000  1
  C  C343  1  0.45730000  0.72580000  0.13980000  1
  C  C344  1  0.04270000  0.72580000  0.58600000  1
  C  C345  1  0.27660000  0.71974000  0.23150000  1
  C  C346  1  0.22340000  0.71974000  0.48824000  1
  C  C347  1  0.53530000  0.71950000  0.10820000  1
  C  C348  1  0.96470000  0.71950000  0.61130000  1
  C  C349  1  0.17010000  0.71600000  0.04360000  1
  C  C350  1  0.32990000  0.71600000  0.67240000  1
  C  C351  1  0.12400000  0.71520000  0.04260000  1
  C  C352  1  0.37600000  0.71520000  0.67260000  1
  C  C353  1  0.60920000  0.71430000  0.20620000  1
  C  C354  1  0.89080000  0.71430000  0.50810000  1
  C  C355  1  0.55560000  0.71260000  0.13770000  1
  C  C356  1  0.94440000  0.71260000  0.57490000  1
  C  C357  1  0.25000000  0.71157000  0.42314000  1
  C  C358  1  0.25000000  0.71156000  0.28843000  1
  C  C359  1  0.55780000  0.71090000  0.07220000  1
  C  C360  1  0.94220000  0.71090000  0.63870000  1
  C  C361  1  0.63080000  0.70950000  0.23650000  1
  C  C362  1  0.86920000  0.70950000  0.47300000  1
  C  C363  1  0.25000000  0.70920000  0.35460000  1
  C  C364  1  0.27650000  0.69782000  0.25310000  1
  C  C365  1  0.22350000  0.69782000  0.44472000  1
  C  C366  1  0.66530000  0.69700000  0.17130000  1
  C  C367  1  0.83470000  0.69700000  0.52570000  1
  C  C368  1  0.59860000  0.69690000  0.13110000  1
  C  C369  1  0.90140000  0.69690000  0.56580000  1
  C  C370  1  0.60080000  0.69520000  0.06560000  1
  C  C371  1  0.89920000  0.69520000  0.62960000  1
  C  C372  1  0.68650000  0.69370000  0.20270000  1
  C  C373  1  0.81350000  0.69370000  0.49100000  1
  C  C374  1  0.62010000  0.68890000  0.16460000  1
  C  C375  1  0.87990000  0.68890000  0.52430000  1
  C  C376  1  0.25000000  0.68885000  0.31115000  1
  C  C377  1  0.25000000  0.68885000  0.37770000  1
  C  C378  1  0.19410000  0.68860000  0.00860000  1
  C  C379  1  0.30590000  0.68860000  0.68000000  1
  C  C380  1  0.62110000  0.68820000  0.09510000  1
  C  C381  1  0.87890000  0.68820000  0.59310000  1
  C  C382  1  0.62600000  0.68780000  0.02830000  1
  C  C383  1  0.87400000  0.68780000  0.65950000  1
  C  C384  1  0.67210000  0.68760000  0.02730000  1
  C  C385  1  0.82790000  0.68760000  0.66030000  1
  C  C386  1  0.10200000  0.68690000  0.00660000  1
  C  C387  1  0.39800000  0.68690000  0.68030000  1
  C  C388  1  0.89800000  0.68030000  0.68690000  1
  C  C389  1  0.60200000  0.68030000  0.99340000  1
  C  C390  1  0.80590000  0.68000000  0.68860000  1
  C  C391  1  0.69410000  0.68000000  0.99140000  1
  C  C392  1  0.66330000  0.67920000  0.22520000  1
  C  C393  1  0.83670000  0.67920000  0.45400000  1
  C  C394  1  0.68890000  0.67700000  0.25860000  1
  C  C395  1  0.81110000  0.67700000  0.41840000  1
  C  C396  1  0.59650000  0.67590000  0.18820000  1
  C  C397  1  0.90350000  0.67590000  0.48770000  1
  C  C398  1  0.87600000  0.67260000  0.71520000  1
  C  C399  1  0.62400000  0.67260000  0.95740000  1
  C  C400  1  0.82990000  0.67240000  0.71600000  1
  C  C401  1  0.67010000  0.67240000  0.95640000  1
  C  C402  1  0.61800000  0.67180000  0.21900000  1
  C  C403  1  0.88200000  0.67180000  0.45280000  1
  C  C404  1  0.80760000  0.67020000  0.75090000  1
  C  C405  1  0.69240000  0.67020000  0.91930000  1
  C  C406  1  0.56800000  0.66880000  0.77010000  1
  C  C407  1  0.93200000  0.66880000  0.89870000  1
  C  C408  1  0.32790000  0.66030000  0.68760000  1
  C  C409  1  0.17210000  0.66030000  0.97270000  1
  C  C410  1  0.37400000  0.65950000  0.68780000  1
  C  C411  1  0.12600000  0.65950000  0.97170000  1
  C  C412  1  0.65250000  0.65860000  0.15330000  1
  C  C413  1  0.84750000  0.65860000  0.50530000  1
  C  C414  1  0.52550000  0.65830000  0.75370000  1
  C  C415  1  0.97450000  0.65830000  0.90460000  1
  C  C416  1  0.67420000  0.65370000  0.18360000  1
  C  C417  1  0.82580000  0.65370000  0.47010000  1
  C  C418  1  0.25000000  0.64540000  0.29080000  1
  C  C419  1  0.25000000  0.64540000  0.35460000  1
  C  C420  1  0.64230000  0.64530000  0.78490000  1
  C  C421  1  0.85770000  0.64530000  0.86040000  1
  C  C422  1  0.44220000  0.63870000  0.71090000  1
  C  C423  1  0.05780000  0.63870000  0.92780000  1
  C  C424  1  0.59780000  0.63790000  0.76440000  1
  C  C425  1  0.90220000  0.63790000  0.87350000  1
  C  C426  1  0.39920000  0.62960000  0.69520000  1
  C  C427  1  0.10080000  0.62960000  0.93440000  1
  C  C428  1  0.25000000  0.62230000  0.31115000  1
  C  C429  1  0.51280000  0.61680000  0.73140000  1
  C  C430  1  0.98720000  0.61680000  0.88540000  1
  C  C431  1  0.46470000  0.61130000  0.71950000  1
  C  C432  1  0.03530000  0.61130000  0.89180000  1
  C  C433  1  0.58520000  0.59650000  0.74220000  1
  C  C434  1  0.91480000  0.59650000  0.85430000  1
  C  C435  1  0.37890000  0.59310000  0.68820000  1
  C  C436  1  0.12110000  0.59310000  0.90490000  1
  C  C437  1  0.54270000  0.58600000  0.72580000  1
  C  C438  1  0.95730000  0.58600000  0.86020000  1
  C  C439  1  0.81110000  0.58160000  0.25860000  1
  C  C440  1  0.68890000  0.58160000  0.32300000  1
  C  C441  1  0.25000000  0.57687000  0.28844000  1
  C  C442  1  0.44440000  0.57490000  0.71260000  1
  C  C443  1  0.05560000  0.57490000  0.86230000  1
  C  C444  1  0.40140000  0.56580000  0.69690000  1
  C  C445  1  0.09860000  0.56580000  0.86890000  1
  C  C446  1  0.75000000  0.55640000  0.77820000  1
  C  C447  1  0.22350000  0.55528000  0.25310000  1
  C  C448  1  0.27650000  0.55528000  0.30218000  1
  C  C449  1  0.88200000  0.54720000  0.21900000  1
  C  C450  1  0.61800000  0.54720000  0.32820000  1
  C  C451  1  0.83670000  0.54600000  0.22520000  1
  C  C452  1  0.66330000  0.54600000  0.32080000  1
  C  C453  1  0.82580000  0.52990000  0.18360000  1
  C  C454  1  0.67420000  0.52990000  0.34630000  1
  C  C455  1  0.86920000  0.52700000  0.23650000  1
  C  C456  1  0.63080000  0.52700000  0.29050000  1
  C  C457  1  0.33470000  0.52570000  0.69700000  1
  C  C458  1  0.16530000  0.52570000  0.82870000  1
  C  C459  1  0.37990000  0.52430000  0.68890000  1
  C  C460  1  0.12010000  0.52430000  0.83540000  1
  C  C461  1  0.90350000  0.51230000  0.18820000  1
  C  C462  1  0.59650000  0.51230000  0.32410000  1
  C  C463  1  0.22340000  0.51176000  0.23150000  1
  C  C464  1  0.27660000  0.51176000  0.28026000  1
  C  C465  1  0.75000000  0.50983000  0.75491000  1
  C  C466  1  0.81350000  0.50900000  0.20270000  1
  C  C467  1  0.68650000  0.50900000  0.30630000  1
  C  C468  1  0.39080000  0.50810000  0.71430000  1
  C  C469  1  0.10920000  0.50810000  0.79380000  1
  C  C470  1  0.34750000  0.50530000  0.65860000  1
  C  C471  1  0.15250000  0.50530000  0.84670000  1
  C  C472  1  0.84750000  0.49470000  0.15330000  1
  C  C473  1  0.65250000  0.49470000  0.34140000  1
  C  C474  1  0.89080000  0.49190000  0.20620000  1
  C  C475  1  0.60920000  0.49190000  0.28570000  1
  C  C476  1  0.31350000  0.49100000  0.69370000  1
  C  C477  1  0.18650000  0.49100000  0.79730000  1
  C  C478  1  0.25000000  0.49017000  0.24509000  1
  C  C479  1  0.72340000  0.48824000  0.71974000  1
  C  C480  1  0.77660000  0.48824000  0.76850000  1
  C  C481  1  0.40350000  0.48770000  0.67590000  1
  C  C482  1  0.09650000  0.48770000  0.81180000  1
  C  C483  1  0.87990000  0.47570000  0.16460000  1
  C  C484  1  0.62010000  0.47570000  0.31110000  1
  C  C485  1  0.83470000  0.47430000  0.17130000  1
  C  C486  1  0.66530000  0.47430000  0.30300000  1
  C  C487  1  0.36920000  0.47300000  0.70950000  1
  C  C488  1  0.13080000  0.47300000  0.76350000  1
  C  C489  1  0.32580000  0.47010000  0.65370000  1
  C  C490  1  0.17420000  0.47010000  0.81640000  1
  C  C491  1  0.33670000  0.45400000  0.67920000  1
  C  C492  1  0.16330000  0.45400000  0.77480000  1
  C  C493  1  0.38200000  0.45280000  0.67180000  1
  C  C494  1  0.11800000  0.45280000  0.78100000  1
  C  C495  1  0.72350000  0.44472000  0.69782000  1
  C  C496  1  0.77650000  0.44472000  0.74690000  1
  C  C497  1  0.25000000  0.44360000  0.22180000  1
  C  C498  1  0.90140000  0.43420000  0.13110000  1
  C  C499  1  0.59860000  0.43420000  0.30310000  1
  C  C500  1  0.94440000  0.42510000  0.13770000  1
  C  C501  1  0.55560000  0.42510000  0.28740000  1
  C  C502  1  0.75000000  0.42313000  0.71156000  1
  C  C503  1  0.31110000  0.41840000  0.67700000  1
  C  C504  1  0.18890000  0.41840000  0.74140000  1
  C  C505  1  0.04270000  0.41400000  0.13980000  1
  C  C506  1  0.45730000  0.41400000  0.27420000  1
  C  C507  1  0.87890000  0.40690000  0.09510000  1
  C  C508  1  0.62110000  0.40690000  0.31180000  1
  C  C509  1  0.08520000  0.40350000  0.14570000  1
  C  C510  1  0.41480000  0.40350000  0.25780000  1
  C  C511  1  0.96470000  0.38870000  0.10820000  1
  C  C512  1  0.53530000  0.38870000  0.28050000  1
  C  C513  1  0.01280000  0.38320000  0.11460000  1
  C  C514  1  0.48720000  0.38320000  0.26860000  1
  C  C515  1  0.75000000  0.37770000  0.68885000  1
  C  C516  1  0.89920000  0.37040000  0.06560000  1
  C  C517  1  0.60080000  0.37040000  0.30480000  1
  C  C518  1  0.09780000  0.36210000  0.12650000  1
  C  C519  1  0.40220000  0.36210000  0.23560000  1
  C  C520  1  0.94220000  0.36130000  0.07220000  1
  C  C521  1  0.55780000  0.36130000  0.28910000  1
  C  C522  1  0.14230000  0.35470000  0.13960000  1
  C  C523  1  0.35770000  0.35470000  0.21510000  1
  C  C524  1  0.75000000  0.35460000  0.64540000  1
  C  C525  1  0.75000000  0.35460000  0.70920000  1
  C  C526  1  0.17420000  0.34630000  0.52990000  1
  C  C527  1  0.32580000  0.34630000  0.81640000  1
  C  C528  1  0.02550000  0.34170000  0.09540000  1
  C  C529  1  0.47450000  0.34170000  0.24630000  1
  C  C530  1  0.15250000  0.34140000  0.49470000  1
  C  C531  1  0.34750000  0.34140000  0.84670000  1
  C  C532  1  0.87400000  0.34050000  0.02830000  1
  C  C533  1  0.62600000  0.34050000  0.31220000  1
  C  C534  1  0.82790000  0.33970000  0.02730000  1
  C  C535  1  0.67210000  0.33970000  0.31240000  1
  C  C536  1  0.06800000  0.33120000  0.10130000  1
  C  C537  1  0.43200000  0.33120000  0.22990000  1
  C  C538  1  0.30760000  0.32980000  0.08070000  1
  C  C539  1  0.19240000  0.32980000  0.24910000  1
  C  C540  1  0.11800000  0.32820000  0.54720000  1
  C  C541  1  0.38200000  0.32820000  0.78100000  1
  C  C542  1  0.32990000  0.32760000  0.04360000  1
  C  C543  1  0.17010000  0.32760000  0.28400000  1
  C  C544  1  0.37600000  0.32740000  0.04260000  1
  C  C545  1  0.12400000  0.32740000  0.28480000  1
  C  C546  1  0.09650000  0.32410000  0.51230000  1
  C  C547  1  0.40350000  0.32410000  0.81180000  1
  C  C548  1  0.18890000  0.32300000  0.58160000  1
  C  C549  1  0.31110000  0.32300000  0.74140000  1
  C  C550  1  0.16330000  0.32080000  0.54600000  1
  C  C551  1  0.33670000  0.32080000  0.77480000  1
  C  C552  1  0.30590000  0.32000000  0.00860000  1
  C  C553  1  0.19410000  0.32000000  0.31140000  1
  C  C554  1  0.39800000  0.31970000  0.00660000  1
  C  C555  1  0.10200000  0.31970000  0.31310000  1
  C  C556  1  0.60200000  0.31310000  0.31970000  1
  C  C557  1  0.89800000  0.31310000  0.99340000  1
  C  C558  1  0.17210000  0.31240000  0.33970000  1
  C  C559  1  0.32790000  0.31240000  0.97270000  1
  C  C560  1  0.12600000  0.31220000  0.34050000  1
  C  C561  1  0.37400000  0.31220000  0.97170000  1
  C  C562  1  0.12110000  0.31180000  0.40690000  1
  C  C563  1  0.37890000  0.31180000  0.90490000  1
  C  C564  1  0.69410000  0.31140000  0.32000000  1
  C  C565  1  0.80590000  0.31140000  0.99140000  1
  C  C566  1  0.75000000  0.31115000  0.62230000  1
  C  C567  1  0.75000000  0.31115000  0.68885000  1
  C  C568  1  0.12010000  0.31110000  0.47570000  1
  C  C569  1  0.37990000  0.31110000  0.83540000  1
  C  C570  1  0.18650000  0.30630000  0.50900000  1
  C  C571  1  0.31350000  0.30630000  0.79730000  1
  C  C572  1  0.10080000  0.30480000  0.37040000  1
  C  C573  1  0.39920000  0.30480000  0.93440000  1
  C  C574  1  0.09860000  0.30310000  0.43420000  1
  C  C575  1  0.40140000  0.30310000  0.86890000  1
  C  C576  1  0.16530000  0.30300000  0.47430000  1
  C  C577  1  0.33470000  0.30300000  0.82870000  1
  C  C578  1  0.77650000  0.30218000  0.55528000  1
  C  C579  1  0.72350000  0.30218000  0.74690000  1
  C  C580  1  0.75000000  0.29080000  0.64540000  1
  C  C581  1  0.13080000  0.29050000  0.52700000  1
  C  C582  1  0.36920000  0.29050000  0.76350000  1
  C  C583  1  0.05780000  0.28910000  0.36130000  1
  C  C584  1  0.44220000  0.28910000  0.92780000  1
  C  C585  1  0.75000000  0.28843000  0.57686000  1
  C  C586  1  0.75000000  0.28843000  0.71156000  1
  C  C587  1  0.05560000  0.28740000  0.42510000  1
  C  C588  1  0.44440000  0.28740000  0.86230000  1
  C  C589  1  0.10920000  0.28570000  0.49190000  1
  C  C590  1  0.39080000  0.28570000  0.79380000  1
  C  C591  1  0.62400000  0.28480000  0.32740000  1
  C  C592  1  0.87600000  0.28480000  0.95740000  1
  C  C593  1  0.67010000  0.28400000  0.32760000  1
  C  C594  1  0.82990000  0.28400000  0.95640000  1
  C  C595  1  0.03530000  0.28050000  0.38870000  1
  C  C596  1  0.46470000  0.28050000  0.89180000  1
  C  C597  1  0.77660000  0.28026000  0.51176000  1
  C  C598  1  0.72340000  0.28026000  0.76850000  1
  C  C599  1  0.95730000  0.27420000  0.41400000  1
  C  C600  1  0.54270000  0.27420000  0.86020000  1
  C  C601  1  0.98720000  0.26860000  0.38320000  1
  C  C602  1  0.51280000  0.26860000  0.88540000  1
  C  C603  1  0.31110000  0.25860000  0.58160000  1
  C  C604  1  0.18890000  0.25860000  0.67700000  1
  C  C605  1  0.91480000  0.25780000  0.40350000  1
  C  C606  1  0.58520000  0.25780000  0.85430000  1
  C  C607  1  0.72350000  0.25310000  0.55528000  1
  C  C608  1  0.77650000  0.25310000  0.69782000  1
  C  C609  1  0.69240000  0.24910000  0.32980000  1
  C  C610  1  0.80760000  0.24910000  0.91930000  1
  C  C611  1  0.97450000  0.24630000  0.34170000  1
  C  C612  1  0.52550000  0.24630000  0.90460000  1
  C  C613  1  0.75000000  0.24508000  0.49017000  1
  C  C614  1  0.75000000  0.24508000  0.75491000  1
  C  C615  1  0.36920000  0.23650000  0.52700000  1
  C  C616  1  0.13080000  0.23650000  0.70950000  1
  C  C617  1  0.90220000  0.23560000  0.36210000  1
  C  C618  1  0.59780000  0.23560000  0.87350000  1
  C  C619  1  0.72340000  0.23150000  0.51176000  1
  C  C620  1  0.77660000  0.23150000  0.71974000  1
  C  C621  1  0.93200000  0.22990000  0.33120000  1
  C  C622  1  0.56800000  0.22990000  0.89870000  1
  C  C623  1  0.33670000  0.22520000  0.54600000  1
  C  C624  1  0.16330000  0.22520000  0.67920000  1
  C  C625  1  0.25000000  0.22300000  0.11150000  1
  C  C626  1  0.75000000  0.22180000  0.44360000  1
  C  C627  1  0.75000000  0.22180000  0.77820000  1
  C  C628  1  0.38200000  0.21900000  0.54720000  1
  C  C629  1  0.11800000  0.21900000  0.67180000  1
  C  C630  1  0.85770000  0.21510000  0.35470000  1
  C  C631  1  0.64230000  0.21510000  0.86040000  1
  C  C632  1  0.39080000  0.20620000  0.49190000  1
  C  C633  1  0.10920000  0.20620000  0.71430000  1
  C  C634  1  0.31350000  0.20270000  0.50900000  1
  C  C635  1  0.18650000  0.20270000  0.69370000  1
  C  C636  1  0.40350000  0.18820000  0.51230000  1
  C  C637  1  0.09650000  0.18820000  0.67590000  1
  C  C638  1  0.32580000  0.18360000  0.52990000  1
  C  C639  1  0.17420000  0.18360000  0.65370000  1
  C  C640  1  0.25000000  0.17651000  0.08826000  1
  C  C641  1  0.33470000  0.17130000  0.47430000  1
  C  C642  1  0.16530000  0.17130000  0.69700000  1
  C  C643  1  0.37990000  0.16460000  0.47570000  1
  C  C644  1  0.12010000  0.16460000  0.68890000  1
  C  C645  1  0.26710000  0.15491000  0.04795000  1
  C  C646  1  0.23290000  0.15491000  0.10696000  1
  C  C647  1  0.34750000  0.15330000  0.49470000  1
  C  C648  1  0.15250000  0.15330000  0.65860000  1
  C  C649  1  0.58520000  0.14570000  0.40350000  1
  C  C650  1  0.91480000  0.14570000  0.74220000  1
  C  C651  1  0.54270000  0.13980000  0.41400000  1
  C  C652  1  0.95730000  0.13980000  0.72580000  1
  C  C653  1  0.64230000  0.13960000  0.35470000  1
  C  C654  1  0.85770000  0.13960000  0.78490000  1
  C  C655  1  0.44440000  0.13770000  0.42510000  1
  C  C656  1  0.05560000  0.13770000  0.71260000  1
  C  C657  1  0.40140000  0.13110000  0.43420000  1
  C  C658  1  0.09860000  0.13110000  0.69690000  1
  C  C659  1  0.59780000  0.12650000  0.36210000  1
  C  C660  1  0.90220000  0.12650000  0.76440000  1
  C  C661  1  0.51280000  0.11460000  0.38320000  1
  C  C662  1  0.98720000  0.11460000  0.73140000  1
  C  C663  1  0.75000000  0.11150000  0.22300000  1
  C  C664  1  0.75000000  0.11150000  0.88850000  1
  C  C665  1  0.26710000  0.11140000  0.02621000  1
  C  C666  1  0.23290000  0.11140000  0.08519000  1
  C  C667  1  0.46470000  0.10820000  0.38870000  1
  C  C668  1  0.03530000  0.10820000  0.71950000  1
  C  C669  1  0.73290000  0.10696000  0.15491000  1
  C  C670  1  0.76710000  0.10696000  0.95205000  1
  C  C671  1  0.56800000  0.10130000  0.33120000  1
  C  C672  1  0.93200000  0.10130000  0.77010000  1
  C  C673  1  0.52550000  0.09540000  0.34170000  1
  C  C674  1  0.97450000  0.09540000  0.75370000  1
  C  C675  1  0.37890000  0.09510000  0.40690000  1
  C  C676  1  0.12110000  0.09510000  0.68820000  1
  C  C677  1  0.25000000  0.08980000  0.04490000  1
  C  C678  1  0.75000000  0.08825000  0.17650000  1
  C  C679  1  0.75000000  0.08825000  0.91174000  1
  C  C680  1  0.73290000  0.08519000  0.11140000  1
  C  C681  1  0.76710000  0.08519000  0.97379000  1
  C  C682  1  0.80760000  0.08070000  0.32980000  1
  C  C683  1  0.69240000  0.08070000  0.75090000  1
  C  C684  1  0.44220000  0.07220000  0.36130000  1
  C  C685  1  0.05780000  0.07220000  0.71090000  1
  C  C686  1  0.39920000  0.06560000  0.37040000  1
  C  C687  1  0.10080000  0.06560000  0.69520000  1
  C  C688  1  0.76710000  0.04795000  0.15491000  1
  C  C689  1  0.73290000  0.04795000  0.89304000  1
  C  C690  1  0.25000000  0.04720000  0.02360000  1
  C  C691  1  0.75000000  0.04490000  0.08980000  1
  C  C692  1  0.75000000  0.04490000  0.95510000  1
  C  C693  1  0.82990000  0.04360000  0.32760000  1
  C  C694  1  0.67010000  0.04360000  0.71600000  1
  C  C695  1  0.87600000  0.04260000  0.32740000  1
  C  C696  1  0.62400000  0.04260000  0.71520000  1
  C  C697  1  0.75000000  0.03840000  0.01920000  1
  C  C698  1  0.37400000  0.02830000  0.34050000  1
  C  C699  1  0.12600000  0.02830000  0.68780000  1
  C  C700  1  0.32790000  0.02730000  0.33970000  1
  C  C701  1  0.17210000  0.02730000  0.68760000  1
  C  C702  1  0.76710000  0.02621000  0.11140000  1
  C  C703  1  0.73290000  0.02621000  0.91481000  1
  C  C704  1  0.75000000  0.02360000  0.04720000  1
  C  C705  1  0.75000000  0.02360000  0.97640000  1
  C  C706  1  0.25000000  0.01920000  0.03840000  1
  C  C707  1  0.25000000  0.01920000  0.98080000  1
  C  C708  1  0.80590000  0.00860000  0.32000000  1
  C  C709  1  0.69410000  0.00860000  0.68860000  1
  C  C710  1  0.89800000  0.00660000  0.31970000  1
  C  C711  1  0.60200000  0.00660000  0.68690000  1
  O  O712  1  0.27930000  0.92830000  0.22650000  1
  O  O713  1  0.22070000  0.92830000  0.70180000  1
  O  O714  1  0.24400000  0.90930000  0.15710000  1
  O  O715  1  0.25600000  0.90930000  0.75220000  1
  O  O716  1  0.31960000  0.90650000  0.20940000  1
  O  O717  1  0.18040000  0.90650000  0.69710000  1
  O  O718  1  0.27310000  0.90490000  0.26160000  1
  O  O719  1  0.22690000  0.90490000  0.64330000  1
  O  O720  1  0.15980000  0.89240000  0.21220000  1
  O  O721  1  0.34020000  0.89240000  0.68020000  1
  O  O722  1  0.28950000  0.88600000  0.12750000  1
  O  O723  1  0.21050000  0.88600000  0.75850000  1
  O  O724  1  0.31500000  0.88540000  0.25290000  1
  O  O725  1  0.18500000  0.88540000  0.63250000  1
  O  O726  1  0.21050000  0.87250000  0.11400000  1
  O  O727  1  0.28950000  0.87250000  0.75850000  1
  O  O728  1  0.17570000  0.87150000  0.24290000  1
  O  O729  1  0.32430000  0.87150000  0.62860000  1
  O  O730  1  0.14530000  0.85440000  0.17610000  1
  O  O731  1  0.35470000  0.85440000  0.67830000  1
  O  O732  1  0.25600000  0.84290000  0.09070000  1
  O  O733  1  0.24400000  0.84290000  0.75220000  1
  O  O734  1  0.25000000  0.83235000  0.16765000  1
  O  O735  1  0.25000000  0.83235000  0.66470000  1
  O  O736  1  0.35470000  0.82390000  0.14560000  1
  O  O737  1  0.14530000  0.82390000  0.67830000  1
  O  O738  1  0.15440000  0.82040000  0.20060000  1
  O  O739  1  0.34560000  0.82040000  0.61980000  1
  O  O740  1  0.25440000  0.82002000  0.24322000  1
  O  O741  1  0.24560000  0.82002000  0.57680000  1
  O  O742  1  0.34560000  0.79940000  0.17960000  1
  O  O743  1  0.15440000  0.79940000  0.61980000  1
  O  O744  1  0.18040000  0.79060000  0.09350000  1
  O  O745  1  0.31960000  0.79060000  0.69710000  1
  O  O746  1  0.34020000  0.78780000  0.10760000  1
  O  O747  1  0.15980000  0.78780000  0.68020000  1
  O  O748  1  0.20910000  0.78710000  0.21320000  1
  O  O749  1  0.29090000  0.78710000  0.57390000  1
  O  O750  1  0.29090000  0.78680000  0.21290000  1
  O  O751  1  0.20910000  0.78680000  0.57390000  1
  O  O752  1  0.22070000  0.77350000  0.07170000  1
  O  O753  1  0.27930000  0.77350000  0.70180000  1
  O  O754  1  0.78950000  0.75850000  0.87250000  1
  O  O755  1  0.71050000  0.75850000  0.88600000  1
  O  O756  1  0.81140000  0.75800000  0.36370000  1
  O  O757  1  0.68860000  0.75800000  0.39430000  1
  O  O758  1  0.32430000  0.75710000  0.12850000  1
  O  O759  1  0.17570000  0.75710000  0.62860000  1
  O  O760  1  0.24560000  0.75678000  0.17998000  1
  O  O761  1  0.25440000  0.75678000  0.57680000  1
  O  O762  1  0.74400000  0.75220000  0.84290000  1
  O  O763  1  0.75600000  0.75220000  0.90930000  1
  O  O764  1  0.77310000  0.74780000  0.34290000  1
  O  O765  1  0.72690000  0.74780000  0.40490000  1
  O  O766  1  0.18500000  0.74710000  0.11460000  1
  O  O767  1  0.31500000  0.74710000  0.63250000  1
  O  O768  1  0.22690000  0.73840000  0.09510000  1
  O  O769  1  0.27310000  0.73840000  0.64330000  1
  O  O770  1  0.69560000  0.71460000  0.29040000  1
  O  O771  1  0.80440000  0.71460000  0.42420000  1
  O  O772  1  0.83110000  0.71200000  0.32690000  1
  O  O773  1  0.66890000  0.71200000  0.38510000  1
  O  O774  1  0.80440000  0.70960000  0.28540000  1
  O  O775  1  0.69560000  0.70960000  0.42420000  1
  O  O776  1  0.77930000  0.70180000  0.77350000  1
  O  O777  1  0.72070000  0.70180000  0.92830000  1
  O  O778  1  0.81960000  0.69710000  0.79060000  1
  O  O779  1  0.68040000  0.69710000  0.90650000  1
  O  O780  1  0.65980000  0.68020000  0.78780000  1
  O  O781  1  0.84020000  0.68020000  0.89240000  1
  O  O782  1  0.64530000  0.67830000  0.82390000  1
  O  O783  1  0.85470000  0.67830000  0.85440000  1
  O  O784  1  0.66890000  0.67310000  0.28800000  1
  O  O785  1  0.83110000  0.67310000  0.38510000  1
  O  O786  1  0.75000000  0.66666667  0.33333333  1
  O  O787  1  0.75000000  0.66470000  0.83235000  1
  O  O788  1  0.72690000  0.65710000  0.25220000  1
  O  O789  1  0.77310000  0.65710000  0.40490000  1
  O  O790  1  0.77310000  0.64330000  0.73840000  1
  O  O791  1  0.72690000  0.64330000  0.90490000  1
  O  O792  1  0.68860000  0.63630000  0.24200000  1
  O  O793  1  0.81140000  0.63630000  0.39430000  1
  O  O794  1  0.81500000  0.63250000  0.74710000  1
  O  O795  1  0.68500000  0.63250000  0.88540000  1
  O  O796  1  0.67570000  0.62860000  0.75710000  1
  O  O797  1  0.82430000  0.62860000  0.87150000  1
  O  O798  1  0.65440000  0.61980000  0.79940000  1
  O  O799  1  0.84560000  0.61980000  0.82040000  1
  O  O800  1  0.83110000  0.61490000  0.28800000  1
  O  O801  1  0.66890000  0.61490000  0.32690000  1
  O  O802  1  0.81140000  0.60570000  0.24200000  1
  O  O803  1  0.68860000  0.60570000  0.36370000  1
  O  O804  1  0.77310000  0.59510000  0.25220000  1
  O  O805  1  0.72690000  0.59510000  0.34290000  1
  O  O806  1  0.75440000  0.57680000  0.75678000  1
  O  O807  1  0.74560000  0.57680000  0.82002000  1
  O  O808  1  0.69560000  0.57580000  0.28540000  1
  O  O809  1  0.80440000  0.57580000  0.29040000  1
  O  O810  1  0.70910000  0.57390000  0.78680000  1
  O  O811  1  0.79090000  0.57390000  0.78710000  1
  O  O812  1  0.20910000  0.42610000  0.21290000  1
  O  O813  1  0.29090000  0.42610000  0.21320000  1
  O  O814  1  0.19560000  0.42420000  0.70960000  1
  O  O815  1  0.30440000  0.42420000  0.71460000  1
  O  O816  1  0.25440000  0.42320000  0.17998000  1
  O  O817  1  0.24560000  0.42320000  0.24322000  1
  O  O818  1  0.27310000  0.40490000  0.65710000  1
  O  O819  1  0.22690000  0.40490000  0.74780000  1
  O  O820  1  0.31140000  0.39430000  0.63630000  1
  O  O821  1  0.18860000  0.39430000  0.75800000  1
  O  O822  1  0.33110000  0.38510000  0.67310000  1
  O  O823  1  0.16890000  0.38510000  0.71200000  1
  O  O824  1  0.15440000  0.38020000  0.17960000  1
  O  O825  1  0.34560000  0.38020000  0.20060000  1
  O  O826  1  0.17570000  0.37140000  0.12850000  1
  O  O827  1  0.32430000  0.37140000  0.24290000  1
  O  O828  1  0.31500000  0.36750000  0.11460000  1
  O  O829  1  0.18500000  0.36750000  0.25290000  1
  O  O830  1  0.18860000  0.36370000  0.60570000  1
  O  O831  1  0.31140000  0.36370000  0.75800000  1
  O  O832  1  0.27310000  0.35670000  0.09510000  1
  O  O833  1  0.22690000  0.35670000  0.26160000  1
  O  O834  1  0.22690000  0.34290000  0.59510000  1
  O  O835  1  0.27310000  0.34290000  0.74780000  1
  O  O836  1  0.25000000  0.33530000  0.16765000  1
  O  O837  1  0.25000000  0.33333333  0.66666667  1
  O  O838  1  0.16890000  0.32690000  0.61490000  1
  O  O839  1  0.33110000  0.32690000  0.71200000  1
  O  O840  1  0.14530000  0.32170000  0.14560000  1
  O  O841  1  0.35470000  0.32170000  0.17610000  1
  O  O842  1  0.15980000  0.31980000  0.10760000  1
  O  O843  1  0.34020000  0.31980000  0.21220000  1
  O  O844  1  0.31960000  0.30290000  0.09350000  1
  O  O845  1  0.18040000  0.30290000  0.20940000  1
  O  O846  1  0.27930000  0.29820000  0.07170000  1
  O  O847  1  0.22070000  0.29820000  0.22650000  1
  O  O848  1  0.30440000  0.29040000  0.57580000  1
  O  O849  1  0.19560000  0.29040000  0.71460000  1
  O  O850  1  0.33110000  0.28800000  0.61490000  1
  O  O851  1  0.16890000  0.28800000  0.67310000  1
  O  O852  1  0.19560000  0.28540000  0.57580000  1
  O  O853  1  0.30440000  0.28540000  0.70960000  1
  O  O854  1  0.72690000  0.26160000  0.35670000  1
  O  O855  1  0.77310000  0.26160000  0.90490000  1
  O  O856  1  0.68500000  0.25290000  0.36750000  1
  O  O857  1  0.81500000  0.25290000  0.88540000  1
  O  O858  1  0.27310000  0.25220000  0.59510000  1
  O  O859  1  0.22690000  0.25220000  0.65710000  1
  O  O860  1  0.24400000  0.24780000  0.09070000  1
  O  O861  1  0.25600000  0.24780000  0.15710000  1
  O  O862  1  0.74560000  0.24322000  0.42320000  1
  O  O863  1  0.75440000  0.24322000  0.82002000  1
  O  O864  1  0.82430000  0.24290000  0.37140000  1
  O  O865  1  0.67570000  0.24290000  0.87150000  1
  O  O866  1  0.31140000  0.24200000  0.60570000  1
  O  O867  1  0.18860000  0.24200000  0.63630000  1
  O  O868  1  0.28950000  0.24150000  0.11400000  1
  O  O869  1  0.21050000  0.24150000  0.12750000  1
  O  O870  1  0.72070000  0.22650000  0.29820000  1
  O  O871  1  0.77930000  0.22650000  0.92830000  1
  O  O872  1  0.79090000  0.21320000  0.42610000  1
  O  O873  1  0.70910000  0.21320000  0.78710000  1
  O  O874  1  0.70910000  0.21290000  0.42610000  1
  O  O875  1  0.79090000  0.21290000  0.78680000  1
  O  O876  1  0.84020000  0.21220000  0.31980000  1
  O  O877  1  0.65980000  0.21220000  0.89240000  1
  O  O878  1  0.68040000  0.20940000  0.30290000  1
  O  O879  1  0.81960000  0.20940000  0.90650000  1
  O  O880  1  0.84560000  0.20060000  0.38020000  1
  O  O881  1  0.65440000  0.20060000  0.82040000  1
  O  O882  1  0.75440000  0.17998000  0.42320000  1
  O  O883  1  0.74560000  0.17998000  0.75678000  1
  O  O884  1  0.65440000  0.17960000  0.38020000  1
  O  O885  1  0.84560000  0.17960000  0.79940000  1
  O  O886  1  0.85470000  0.17610000  0.32170000  1
  O  O887  1  0.64530000  0.17610000  0.85440000  1
  O  O888  1  0.75000000  0.16765000  0.33530000  1
  O  O889  1  0.75000000  0.16765000  0.83235000  1
  O  O890  1  0.75600000  0.15710000  0.24780000  1
  O  O891  1  0.74400000  0.15710000  0.90930000  1
  O  O892  1  0.64530000  0.14560000  0.32170000  1
  O  O893  1  0.85470000  0.14560000  0.82390000  1
  O  O894  1  0.67570000  0.12850000  0.37140000  1
  O  O895  1  0.82430000  0.12850000  0.75710000  1
  O  O896  1  0.71050000  0.12750000  0.24150000  1
  O  O897  1  0.78950000  0.12750000  0.88600000  1
  O  O898  1  0.81500000  0.11460000  0.36750000  1
  O  O899  1  0.68500000  0.11460000  0.74710000  1
  O  O900  1  0.78950000  0.11400000  0.24150000  1
  O  O901  1  0.71050000  0.11400000  0.87250000  1
  O  O902  1  0.65980000  0.10760000  0.31980000  1
  O  O903  1  0.84020000  0.10760000  0.78780000  1
  O  O904  1  0.77310000  0.09510000  0.35670000  1
  O  O905  1  0.72690000  0.09510000  0.73840000  1
  O  O906  1  0.81960000  0.09350000  0.30290000  1
  O  O907  1  0.68040000  0.09350000  0.79060000  1
  O  O908  1  0.74400000  0.09070000  0.24780000  1
  O  O909  1  0.75600000  0.09070000  0.84290000  1
  O  O910  1  0.77930000  0.07170000  0.29820000  1
  O  O911  1  0.72070000  0.07170000  0.77350000  1
  F  F912  1  0.26240000  0.99140000  0.31150000  1
  F  F913  1  0.23760000  0.99140000  0.67990000  1
  F  F914  1  0.28250000  0.96600000  0.14460000  1
  F  F915  1  0.21750000  0.96600000  0.82140000  1
  F  F916  1  0.39860000  0.92440000  0.25900000  1
  F  F917  1  0.10140000  0.92440000  0.66540000  1
  F  F918  1  0.08210000  0.91570000  0.20850000  1
  F  F919  1  0.41790000  0.91570000  0.70720000  1
  F  F920  1  0.21750000  0.85540000  0.03400000  1
  F  F921  1  0.28250000  0.85540000  0.82140000  1
  F  F922  1  0.79630000  0.83190000  0.37610000  1
  F  F923  1  0.70370000  0.83190000  0.45580000  1
  F  F924  1  0.11340000  0.83070000  0.26330000  1
  F  F925  1  0.38660000  0.83070000  0.56740000  1
  F  F926  1  0.78250000  0.82140000  0.85540000  1
  F  F927  1  0.71750000  0.82140000  0.96600000  1
  F  F928  1  0.19860000  0.80140000  0.29150000  1
  F  F929  1  0.30140000  0.80140000  0.50990000  1
  F  F930  1  0.77130000  0.79230000  0.29670000  1
  F  F931  1  0.72870000  0.79230000  0.49560000  1
  F  F932  1  0.41790000  0.79150000  0.08430000  1
  F  F933  1  0.08210000  0.79150000  0.70720000  1
  F  F934  1  0.91070000  0.76300000  0.34060000  1
  F  F935  1  0.58930000  0.76300000  0.42240000  1
  F  F936  1  0.10140000  0.74100000  0.07560000  1
  F  F937  1  0.39860000  0.74100000  0.66540000  1
  F  F938  1  0.38660000  0.73670000  0.16930000  1
  F  F939  1  0.11340000  0.73670000  0.56740000  1
  F  F940  1  0.61860000  0.73480000  0.27480000  1
  F  F941  1  0.88140000  0.73480000  0.46000000  1
  F  F942  1  0.88140000  0.72520000  0.26520000  1
  F  F943  1  0.61860000  0.72520000  0.46000000  1
  F  F944  1  0.30140000  0.70850000  0.19860000  1
  F  F945  1  0.19860000  0.70850000  0.50990000  1
  F  F946  1  0.58210000  0.70720000  0.79150000  1
  F  F947  1  0.91790000  0.70720000  0.91570000  1
  F  F948  1  0.72870000  0.70330000  0.20770000  1
  F  F949  1  0.77130000  0.70330000  0.49560000  1
  F  F950  1  0.23760000  0.68850000  0.00860000  1
  F  F951  1  0.26240000  0.68850000  0.67990000  1
  F  F952  1  0.76240000  0.67990000  0.68850000  1
  F  F953  1  0.73760000  0.67990000  0.99140000  1
  F  F954  1  0.89860000  0.66540000  0.74100000  1
  F  F955  1  0.60140000  0.66540000  0.92440000  1
  F  F956  1  0.58930000  0.65940000  0.23700000  1
  F  F957  1  0.91070000  0.65940000  0.42240000  1
  F  F958  1  0.70370000  0.62390000  0.16810000  1
  F  F959  1  0.79630000  0.62390000  0.45580000  1
  F  F960  1  0.91070000  0.57760000  0.23700000  1
  F  F961  1  0.58930000  0.57760000  0.34060000  1
  F  F962  1  0.61340000  0.56740000  0.73670000  1
  F  F963  1  0.88660000  0.56740000  0.83070000  1
  F  F964  1  0.79630000  0.54420000  0.16810000  1
  F  F965  1  0.70370000  0.54420000  0.37610000  1
  F  F966  1  0.61860000  0.54000000  0.26520000  1
  F  F967  1  0.88140000  0.54000000  0.27480000  1
  F  F968  1  0.69860000  0.50990000  0.70850000  1
  F  F969  1  0.80140000  0.50990000  0.80140000  1
  F  F970  1  0.77130000  0.50440000  0.20770000  1
  F  F971  1  0.72870000  0.50440000  0.29670000  1
  F  F972  1  0.27130000  0.49560000  0.70330000  1
  F  F973  1  0.22870000  0.49560000  0.79230000  1
  F  F974  1  0.19860000  0.49010000  0.19860000  1
  F  F975  1  0.30140000  0.49010000  0.29150000  1
  F  F976  1  0.11860000  0.46000000  0.72520000  1
  F  F977  1  0.38140000  0.46000000  0.73480000  1
  F  F978  1  0.29630000  0.45580000  0.62390000  1
  F  F979  1  0.20370000  0.45580000  0.83190000  1
  F  F980  1  0.11340000  0.43260000  0.16930000  1
  F  F981  1  0.38660000  0.43260000  0.26330000  1
  F  F982  1  0.41070000  0.42240000  0.65940000  1
  F  F983  1  0.08930000  0.42240000  0.76300000  1
  F  F984  1  0.20370000  0.37610000  0.54420000  1
  F  F985  1  0.29630000  0.37610000  0.83190000  1
  F  F986  1  0.08930000  0.34060000  0.57760000  1
  F  F987  1  0.41070000  0.34060000  0.76300000  1
  F  F988  1  0.39860000  0.33460000  0.07560000  1
  F  F989  1  0.10140000  0.33460000  0.25900000  1
  F  F990  1  0.26240000  0.32010000  0.00860000  1
  F  F991  1  0.23760000  0.32010000  0.31150000  1
  F  F992  1  0.73760000  0.31150000  0.32010000  1
  F  F993  1  0.76240000  0.31150000  0.99140000  1
  F  F994  1  0.22870000  0.29670000  0.50440000  1
  F  F995  1  0.27130000  0.29670000  0.79230000  1
  F  F996  1  0.08210000  0.29280000  0.08430000  1
  F  F997  1  0.41790000  0.29280000  0.20850000  1
  F  F998  1  0.80140000  0.29150000  0.49010000  1
  F  F999  1  0.69860000  0.29150000  0.80140000  1
  F  F1000  1  0.38140000  0.27480000  0.54000000  1
  F  F1001  1  0.11860000  0.27480000  0.73480000  1
  F  F1002  1  0.11860000  0.26520000  0.54000000  1
  F  F1003  1  0.38140000  0.26520000  0.72520000  1
  F  F1004  1  0.88660000  0.26330000  0.43260000  1
  F  F1005  1  0.61340000  0.26330000  0.83070000  1
  F  F1006  1  0.60140000  0.25900000  0.33460000  1
  F  F1007  1  0.89860000  0.25900000  0.92440000  1
  F  F1008  1  0.41070000  0.23700000  0.57760000  1
  F  F1009  1  0.08930000  0.23700000  0.65940000  1
  F  F1010  1  0.91790000  0.20850000  0.29280000  1
  F  F1011  1  0.58210000  0.20850000  0.91570000  1
  F  F1012  1  0.27130000  0.20770000  0.50440000  1
  F  F1013  1  0.22870000  0.20770000  0.70330000  1
  F  F1014  1  0.69860000  0.19860000  0.49010000  1
  F  F1015  1  0.80140000  0.19860000  0.70850000  1
  F  F1016  1  0.28250000  0.17860000  0.03400000  1
  F  F1017  1  0.21750000  0.17860000  0.14460000  1
  F  F1018  1  0.61340000  0.16930000  0.43260000  1
  F  F1019  1  0.88660000  0.16930000  0.73670000  1
  F  F1020  1  0.29630000  0.16810000  0.54420000  1
  F  F1021  1  0.20370000  0.16810000  0.62390000  1
  F  F1022  1  0.71750000  0.14460000  0.17860000  1
  F  F1023  1  0.78250000  0.14460000  0.96600000  1
  F  F1024  1  0.58210000  0.08430000  0.29280000  1
  F  F1025  1  0.91790000  0.08430000  0.79150000  1
  F  F1026  1  0.89860000  0.07560000  0.33460000  1
  F  F1027  1  0.60140000  0.07560000  0.74100000  1
  F  F1028  1  0.78250000  0.03400000  0.17860000  1
  F  F1029  1  0.71750000  0.03400000  0.85540000  1
  F  F1030  1  0.76240000  0.00860000  0.32010000  1
  F  F1031  1  0.73760000  0.00860000  0.68850000  1
