# generated using pymatgen
data_CdH7C12(NO2)2
_symmetry_space_group_name_H-M   'P 1'
_cell_length_a   7.57700000
_cell_length_b   15.07100000
_cell_length_c   27.32000000
_cell_angle_alpha   90.00000000
_cell_angle_beta   90.00000000
_cell_angle_gamma   90.00000000
_symmetry_Int_Tables_number   1
_chemical_formula_structural   CdH7C12(NO2)2
_chemical_formula_sum   'Cd8 H56 C96 N16 O32'
_cell_volume   3119.75185844
_cell_formula_units_Z   8
loop_
 _symmetry_equiv_pos_site_id
 _symmetry_equiv_pos_as_xyz
  1  'x, y, z'
loop_
 _atom_site_type_symbol
 _atom_site_label
 _atom_site_symmetry_multiplicity
 _atom_site_fract_x
 _atom_site_fract_y
 _atom_site_fract_z
 _atom_site_occupancy
  Cd  Cd0  1  0.23655000  0.33005000  0.09431000  1
  Cd  Cd1  1  0.23655000  0.83005000  0.40569000  1
  Cd  Cd2  1  0.38348000  0.25529000  0.33840000  1
  Cd  Cd3  1  0.38348000  0.75529000  0.16160000  1
  Cd  Cd4  1  0.61652000  0.24471000  0.83840000  1
  Cd  Cd5  1  0.61652000  0.74471000  0.66160000  1
  Cd  Cd6  1  0.76345000  0.16995000  0.59431000  1
  Cd  Cd7  1  0.76345000  0.66995000  0.90569000  1
  H  H8  1  0.02210000  0.37500000  0.45360000  1
  H  H9  1  0.02210000  0.87500000  0.04640000  1
  H  H10  1  0.06030000  0.23500000  0.76800000  1
  H  H11  1  0.06030000  0.73500000  0.73200000  1
  H  H12  1  0.07620000  0.25250000  0.98840000  1
  H  H13  1  0.07620000  0.75250000  0.51160000  1
  H  H14  1  0.10370000  0.49660000  0.42310000  1
  H  H15  1  0.10370000  0.99660000  0.07690000  1
  H  H16  1  0.16550000  0.26700000  0.21340000  1
  H  H17  1  0.16550000  0.76700000  0.28660000  1
  H  H18  1  0.16650000  0.22370000  0.60480000  1
  H  H19  1  0.16650000  0.72370000  0.89520000  1
  H  H20  1  0.20020000  0.12840000  0.10730000  1
  H  H21  1  0.20020000  0.62840000  0.39270000  1
  H  H22  1  0.21320000  0.26540000  0.85560000  1
  H  H23  1  0.21320000  0.76540000  0.64440000  1
  H  H24  1  0.34210000  0.04380000  0.59160000  1
  H  H25  1  0.34210000  0.54380000  0.90840000  1
  H  H26  1  0.42640000  0.26030000  0.45770000  1
  H  H27  1  0.42640000  0.76030000  0.04230000  1
  H  H28  1  0.43380000  0.45290000  0.57590000  1
  H  H29  1  0.43380000  0.95290000  0.92410000  1
  H  H30  1  0.44100000  0.05050000  0.38270000  1
  H  H31  1  0.44100000  0.55050000  0.11730000  1
  H  H32  1  0.44390000  0.35800000  0.52080000  1
  H  H33  1  0.44390000  0.85800000  0.97920000  1
  H  H34  1  0.46380000  0.05590000  0.86320000  1
  H  H35  1  0.46380000  0.55590000  0.63680000  1
  H  H36  1  0.53620000  0.44410000  0.36320000  1
  H  H37  1  0.53620000  0.94410000  0.13680000  1
  H  H38  1  0.55610000  0.14200000  0.02080000  1
  H  H39  1  0.55610000  0.64200000  0.47920000  1
  H  H40  1  0.55900000  0.44950000  0.88270000  1
  H  H41  1  0.55900000  0.94950000  0.61730000  1
  H  H42  1  0.56620000  0.04710000  0.07590000  1
  H  H43  1  0.56620000  0.54710000  0.42410000  1
  H  H44  1  0.57360000  0.23970000  0.95770000  1
  H  H45  1  0.57360000  0.73970000  0.54230000  1
  H  H46  1  0.65790000  0.45620000  0.09160000  1
  H  H47  1  0.65790000  0.95620000  0.40840000  1
  H  H48  1  0.78680000  0.23460000  0.35560000  1
  H  H49  1  0.78680000  0.73460000  0.14440000  1
  H  H50  1  0.79980000  0.37160000  0.60730000  1
  H  H51  1  0.79980000  0.87160000  0.89270000  1
  H  H52  1  0.83350000  0.27630000  0.10480000  1
  H  H53  1  0.83350000  0.77630000  0.39520000  1
  H  H54  1  0.83450000  0.23300000  0.71340000  1
  H  H55  1  0.83450000  0.73300000  0.78660000  1
  H  H56  1  0.89630000  0.00340000  0.92310000  1
  H  H57  1  0.89630000  0.50340000  0.57690000  1
  H  H58  1  0.92380000  0.24750000  0.48840000  1
  H  H59  1  0.92380000  0.74750000  0.01160000  1
  H  H60  1  0.93970000  0.26500000  0.26800000  1
  H  H61  1  0.93970000  0.76500000  0.23200000  1
  H  H62  1  0.97790000  0.12500000  0.95360000  1
  H  H63  1  0.97790000  0.62500000  0.54640000  1
  C  C64  1  0.00390000  0.47120000  0.09210000  1
  C  C65  1  0.00390000  0.97120000  0.40790000  1
  C  C66  1  0.02230000  0.12350000  0.98530000  1
  C  C67  1  0.02230000  0.62350000  0.51470000  1
  C  C68  1  0.02840000  0.04200000  0.01080000  1
  C  C69  1  0.02840000  0.54200000  0.48920000  1
  C  C70  1  0.05010000  0.27060000  0.20190000  1
  C  C71  1  0.05010000  0.77060000  0.29810000  1
  C  C72  1  0.08070000  0.20030000  0.00660000  1
  C  C73  1  0.08070000  0.70030000  0.49340000  1
  C  C74  1  0.08510000  0.23070000  0.73480000  1
  C  C75  1  0.08510000  0.73070000  0.76520000  1
  C  C76  1  0.08540000  0.16200000  0.37570000  1
  C  C77  1  0.08540000  0.66200000  0.12430000  1
  C  C78  1  0.09620000  0.04740000  0.05770000  1
  C  C79  1  0.09620000  0.54740000  0.44230000  1
  C  C80  1  0.09920000  0.37640000  0.87980000  1
  C  C81  1  0.09920000  0.87640000  0.62020000  1
  C  C82  1  0.13750000  0.46190000  0.89600000  1
  C  C83  1  0.13750000  0.96190000  0.60400000  1
  C  C84  1  0.14540000  0.22340000  0.63830000  1
  C  C85  1  0.14540000  0.72340000  0.86170000  1
  C  C86  1  0.15250000  0.12750000  0.07600000  1
  C  C87  1  0.15250000  0.62750000  0.42400000  1
  C  C88  1  0.23850000  0.32280000  0.86600000  1
  C  C89  1  0.23850000  0.82280000  0.63400000  1
  C  C90  1  0.25910000  0.22580000  0.71930000  1
  C  C91  1  0.25910000  0.72580000  0.78070000  1
  C  C92  1  0.28760000  0.22320000  0.66920000  1
  C  C93  1  0.28760000  0.72320000  0.83080000  1
  C  C94  1  0.31220000  0.48740000  0.89730000  1
  C  C95  1  0.31220000  0.98740000  0.60270000  1
  C  C96  1  0.40470000  0.22580000  0.75750000  1
  C  C97  1  0.40470000  0.72580000  0.74250000  1
  C  C98  1  0.44240000  0.43030000  0.88210000  1
  C  C99  1  0.44240000  0.93030000  0.61790000  1
  C  C100  1  0.44880000  0.31970000  0.45070000  1
  C  C101  1  0.44880000  0.81970000  0.04930000  1
  C  C102  1  0.46020000  0.37790000  0.48890000  1
  C  C103  1  0.46020000  0.87790000  0.01110000  1
  C  C104  1  0.46770000  0.21110000  0.64540000  1
  C  C105  1  0.46770000  0.71110000  0.85460000  1
  C  C106  1  0.46870000  0.01040000  0.93180000  1
  C  C107  1  0.46870000  0.51040000  0.56820000  1
  C  C108  1  0.48560000  0.07280000  0.89540000  1
  C  C109  1  0.48560000  0.57280000  0.60460000  1
  C  C110  1  0.49640000  0.46700000  0.48000000  1
  C  C111  1  0.49640000  0.96700000  0.02000000  1
  C  C112  1  0.50360000  0.03300000  0.98000000  1
  C  C113  1  0.50360000  0.53300000  0.52000000  1
  C  C114  1  0.51440000  0.42720000  0.39540000  1
  C  C115  1  0.51440000  0.92720000  0.10460000  1
  C  C116  1  0.53130000  0.48960000  0.43180000  1
  C  C117  1  0.53130000  0.98960000  0.06820000  1
  C  C118  1  0.53230000  0.28890000  0.14540000  1
  C  C119  1  0.53230000  0.78890000  0.35460000  1
  C  C120  1  0.53980000  0.12210000  0.98890000  1
  C  C121  1  0.53980000  0.62210000  0.51110000  1
  C  C122  1  0.55120000  0.18030000  0.95070000  1
  C  C123  1  0.55120000  0.68030000  0.54930000  1
  C  C124  1  0.55760000  0.06970000  0.38210000  1
  C  C125  1  0.55760000  0.56970000  0.11790000  1
  C  C126  1  0.59530000  0.27420000  0.25750000  1
  C  C127  1  0.59530000  0.77420000  0.24250000  1
  C  C128  1  0.68780000  0.01260000  0.39730000  1
  C  C129  1  0.68780000  0.51260000  0.10270000  1
  C  C130  1  0.71240000  0.27680000  0.16920000  1
  C  C131  1  0.71240000  0.77680000  0.33080000  1
  C  C132  1  0.74090000  0.27420000  0.21930000  1
  C  C133  1  0.74090000  0.77420000  0.28070000  1
  C  C134  1  0.76150000  0.17720000  0.36600000  1
  C  C135  1  0.76150000  0.67720000  0.13400000  1
  C  C136  1  0.84750000  0.37250000  0.57600000  1
  C  C137  1  0.84750000  0.87250000  0.92400000  1
  C  C138  1  0.85460000  0.27660000  0.13830000  1
  C  C139  1  0.85460000  0.77660000  0.36170000  1
  C  C140  1  0.86250000  0.03810000  0.39600000  1
  C  C141  1  0.86250000  0.53810000  0.10400000  1
  C  C142  1  0.90080000  0.12360000  0.37980000  1
  C  C143  1  0.90080000  0.62360000  0.12020000  1
  C  C144  1  0.90380000  0.45260000  0.55770000  1
  C  C145  1  0.90380000  0.95260000  0.94230000  1
  C  C146  1  0.91460000  0.33800000  0.87570000  1
  C  C147  1  0.91460000  0.83800000  0.62430000  1
  C  C148  1  0.91490000  0.26930000  0.23480000  1
  C  C149  1  0.91490000  0.76930000  0.26520000  1
  C  C150  1  0.91930000  0.29970000  0.50660000  1
  C  C151  1  0.91930000  0.79970000  0.99340000  1
  C  C152  1  0.94990000  0.22940000  0.70190000  1
  C  C153  1  0.94990000  0.72940000  0.79810000  1
  C  C154  1  0.97160000  0.45800000  0.51080000  1
  C  C155  1  0.97160000  0.95800000  0.98920000  1
  C  C156  1  0.97770000  0.37650000  0.48530000  1
  C  C157  1  0.97770000  0.87650000  0.01470000  1
  C  C158  1  0.99610000  0.02880000  0.59210000  1
  C  C159  1  0.99610000  0.52880000  0.90790000  1
  N  N160  1  0.02210000  0.27690000  0.15360000  1
  N  N161  1  0.02210000  0.77690000  0.34640000  1
  N  N162  1  0.14320000  0.20370000  0.05170000  1
  N  N163  1  0.14320000  0.70370000  0.44830000  1
  N  N164  1  0.40780000  0.34840000  0.86670000  1
  N  N165  1  0.40780000  0.84840000  0.63330000  1
  N  N166  1  0.46770000  0.34290000  0.40440000  1
  N  N167  1  0.46770000  0.84290000  0.09560000  1
  N  N168  1  0.53230000  0.15710000  0.90440000  1
  N  N169  1  0.53230000  0.65710000  0.59560000  1
  N  N170  1  0.59220000  0.15160000  0.36670000  1
  N  N171  1  0.59220000  0.65160000  0.13330000  1
  N  N172  1  0.85680000  0.29630000  0.55170000  1
  N  N173  1  0.85680000  0.79630000  0.94830000  1
  N  N174  1  0.97790000  0.22310000  0.65360000  1
  N  N175  1  0.97790000  0.72310000  0.84640000  1
  O  O176  1  0.02700000  0.08770000  0.56117000  1
  O  O177  1  0.02700000  0.58770000  0.93883000  1
  O  O178  1  0.13170000  0.18340000  0.33280000  1
  O  O179  1  0.13170000  0.68340000  0.16720000  1
  O  O180  1  0.14420000  0.47390000  0.11640000  1
  O  O181  1  0.14420000  0.97390000  0.38360000  1
  O  O182  1  0.17390000  0.17530000  0.41280000  1
  O  O183  1  0.17390000  0.67530000  0.08720000  1
  O  O184  1  0.38660000  0.17630000  0.79320000  1
  O  O185  1  0.38660000  0.67630000  0.70680000  1
  O  O186  1  0.43090000  0.34310000  0.16250000  1
  O  O187  1  0.43090000  0.84310000  0.33750000  1
  O  O188  1  0.47300000  0.21980000  0.25350000  1
  O  O189  1  0.47300000  0.71980000  0.24650000  1
  O  O190  1  0.49870000  0.25310000  0.60710000  1
  O  O191  1  0.49870000  0.75310000  0.89290000  1
  O  O192  1  0.50130000  0.24690000  0.10710000  1
  O  O193  1  0.50130000  0.74690000  0.39290000  1
  O  O194  1  0.52700000  0.28020000  0.75350000  1
  O  O195  1  0.52700000  0.78020000  0.74650000  1
  O  O196  1  0.56910000  0.15690000  0.66250000  1
  O  O197  1  0.56910000  0.65690000  0.83750000  1
  O  O198  1  0.61340000  0.32370000  0.29320000  1
  O  O199  1  0.61340000  0.82370000  0.20680000  1
  O  O200  1  0.82610000  0.32470000  0.91280000  1
  O  O201  1  0.82610000  0.82470000  0.58720000  1
  O  O202  1  0.85580000  0.02610000  0.61640000  1
  O  O203  1  0.85580000  0.52610000  0.88360000  1
  O  O204  1  0.86830000  0.31660000  0.83280000  1
  O  O205  1  0.86830000  0.81660000  0.66720000  1
  O  O206  1  0.97300000  0.41230000  0.06117000  1
  O  O207  1  0.97300000  0.91230000  0.43883000  1
