# generated using pymatgen
data_TbH3C9NO7
_symmetry_space_group_name_H-M   'P 1'
_cell_length_a   12.97310000
_cell_length_b   12.97310000
_cell_length_c   14.78100000
_cell_angle_alpha   83.84000000
_cell_angle_beta   83.84000000
_cell_angle_gamma   62.22520000
_symmetry_Int_Tables_number   1
_chemical_formula_structural   TbH3C9NO7
_chemical_formula_sum   'Tb4 H12 C36 N4 O28'
_cell_volume   2183.69224956
_cell_formula_units_Z   4
loop_
 _symmetry_equiv_pos_site_id
 _symmetry_equiv_pos_as_xyz
  1  'x, y, z'
loop_
 _atom_site_type_symbol
 _atom_site_label
 _atom_site_symmetry_multiplicity
 _atom_site_fract_x
 _atom_site_fract_y
 _atom_site_fract_z
 _atom_site_occupancy
  Tb  Tb0  1  0.35008000  0.98823000  0.52724000  1
  Tb  Tb1  1  0.01177000  0.64992000  0.97276000  1
  Tb  Tb2  1  0.98823000  0.35008000  0.02724000  1
  Tb  Tb3  1  0.64992000  0.01177000  0.47276000  1
  H  H4  1  0.73560000  0.78200000  0.23520000  1
  H  H5  1  0.78200000  0.73560000  0.73520000  1
  H  H6  1  0.47610000  0.71130000  0.33850000  1
  H  H7  1  0.51850000  0.70530000  0.64340000  1
  H  H8  1  0.28870000  0.52390000  0.16150000  1
  H  H9  1  0.70530000  0.51850000  0.14340000  1
  H  H10  1  0.29470000  0.48150000  0.85660000  1
  H  H11  1  0.71130000  0.47610000  0.83850000  1
  H  H12  1  0.48150000  0.29470000  0.35660000  1
  H  H13  1  0.52390000  0.28870000  0.66150000  1
  H  H14  1  0.21800000  0.26440000  0.26480000  1
  H  H15  1  0.26440000  0.21800000  0.76480000  1
  C  C16  1  0.56190000  0.85390000  0.36290000  1
  C  C17  1  0.63360000  0.83200000  0.60690000  1
  C  C18  1  0.60180000  0.75940000  0.29760000  1
  C  C19  1  0.69637000  0.73737000  0.23650000  1
  C  C20  1  0.64910000  0.73390000  0.67700000  1
  C  C21  1  0.73737000  0.69637000  0.73650000  1
  C  C22  1  0.54240000  0.69380000  0.29930000  1
  C  C23  1  0.57980000  0.67820000  0.68140000  1
  C  C24  1  0.73390000  0.64910000  0.17700000  1
  C  C25  1  0.83200000  0.63360000  0.10690000  1
  C  C26  1  0.75940000  0.60180000  0.79760000  1
  C  C27  1  0.58160000  0.60140000  0.24250000  1
  C  C28  1  0.60140000  0.58160000  0.74250000  1
  C  C29  1  0.67820000  0.57980000  0.18140000  1
  C  C30  1  0.85390000  0.56190000  0.86290000  1
  C  C31  1  0.69380000  0.54240000  0.79930000  1
  C  C32  1  0.52100000  0.53280000  0.24670000  1
  C  C33  1  0.53280000  0.52100000  0.74670000  1
  C  C34  1  0.46720000  0.47900000  0.25330000  1
  C  C35  1  0.47900000  0.46720000  0.75330000  1
  C  C36  1  0.30620000  0.45760000  0.20070000  1
  C  C37  1  0.14610000  0.43810000  0.13710000  1
  C  C38  1  0.32180000  0.42020000  0.81860000  1
  C  C39  1  0.39860000  0.41840000  0.25750000  1
  C  C40  1  0.41840000  0.39860000  0.75750000  1
  C  C41  1  0.24060000  0.39820000  0.20240000  1
  C  C42  1  0.16800000  0.36640000  0.89310000  1
  C  C43  1  0.26610000  0.35090000  0.82300000  1
  C  C44  1  0.42020000  0.32180000  0.31860000  1
  C  C45  1  0.45760000  0.30620000  0.70070000  1
  C  C46  1  0.26263000  0.30363000  0.26350000  1
  C  C47  1  0.35090000  0.26610000  0.32300000  1
  C  C48  1  0.30363000  0.26263000  0.76350000  1
  C  C49  1  0.39820000  0.24060000  0.70240000  1
  C  C50  1  0.36640000  0.16800000  0.39310000  1
  C  C51  1  0.43810000  0.14610000  0.63710000  1
  N  N52  1  0.27590000  0.82990000  0.46740000  1
  N  N53  1  0.17010000  0.72410000  0.03260000  1
  N  N54  1  0.82990000  0.27590000  0.96740000  1
  N  N55  1  0.72410000  0.17010000  0.53260000  1
  O  O56  1  0.22210000  0.93790000  0.45140000  1
  O  O57  1  0.45859000  0.89519000  0.39600000  1
  O  O58  1  0.63567000  0.88547000  0.37920000  1
  O  O59  1  0.54078000  0.88358000  0.56640000  1
  O  O60  1  0.71471000  0.85751000  0.58960000  1
  O  O61  1  0.35490000  0.79330000  0.52250000  1
  O  O62  1  0.06210000  0.77790000  0.04860000  1
  O  O63  1  0.25610000  0.76150000  0.43020000  1
  O  O64  1  0.23850000  0.74390000  0.06980000  1
  O  O65  1  0.85751000  0.71471000  0.08960000  1
  O  O66  1  0.20670000  0.64510000  0.97750000  1
  O  O67  1  0.88547000  0.63567000  0.87920000  1
  O  O68  1  0.10481000  0.54141000  0.10400000  1
  O  O69  1  0.88358000  0.54078000  0.06640000  1
  O  O70  1  0.11642000  0.45922000  0.93360000  1
  O  O71  1  0.89519000  0.45859000  0.89600000  1
  O  O72  1  0.11453000  0.36433000  0.12080000  1
  O  O73  1  0.79330000  0.35490000  0.02250000  1
  O  O74  1  0.14249000  0.28529000  0.91040000  1
  O  O75  1  0.76150000  0.25610000  0.93020000  1
  O  O76  1  0.74390000  0.23850000  0.56980000  1
  O  O77  1  0.93790000  0.22210000  0.95140000  1
  O  O78  1  0.64510000  0.20670000  0.47750000  1
  O  O79  1  0.28529000  0.14249000  0.41040000  1
  O  O80  1  0.45922000  0.11642000  0.43360000  1
  O  O81  1  0.36433000  0.11453000  0.62080000  1
  O  O82  1  0.54141000  0.10481000  0.60400000  1
  O  O83  1  0.77790000  0.06210000  0.54860000  1
