# generated using pymatgen
data_Yb4H37C57N3O16
_symmetry_space_group_name_H-M   'P 1'
_cell_length_a   29.31100000
_cell_length_b   29.31100000
_cell_length_c   29.31100000
_cell_angle_alpha   90.00000000
_cell_angle_beta   90.00000000
_cell_angle_gamma   90.00000000
_symmetry_Int_Tables_number   1
_chemical_formula_structural   Yb4H37C57N3O16
_chemical_formula_sum   'Yb32 H296 C456 N24 O128'
_cell_volume   25182.09780723
_cell_formula_units_Z   8
loop_
 _symmetry_equiv_pos_site_id
 _symmetry_equiv_pos_as_xyz
  1  'x, y, z'
loop_
 _atom_site_type_symbol
 _atom_site_label
 _atom_site_symmetry_multiplicity
 _atom_site_fract_x
 _atom_site_fract_y
 _atom_site_fract_z
 _atom_site_occupancy
  Yb  Yb0  1  0.14433000  0.24537000  0.18293000  1
  Yb  Yb1  1  0.14433000  0.25463000  0.68293000  1
  Yb  Yb2  1  0.18293000  0.14433000  0.24537000  1
  Yb  Yb3  1  0.18293000  0.35567000  0.74537000  1
  Yb  Yb4  1  0.24537000  0.18293000  0.14433000  1
  Yb  Yb5  1  0.24537000  0.31707000  0.64433000  1
  Yb  Yb6  1  0.24954000  0.24954000  0.24954000  1
  Yb  Yb7  1  0.24954000  0.25046000  0.74954000  1
  Yb  Yb8  1  0.25046000  0.74954000  0.24954000  1
  Yb  Yb9  1  0.25046000  0.75046000  0.74954000  1
  Yb  Yb10  1  0.25463000  0.68293000  0.14433000  1
  Yb  Yb11  1  0.25463000  0.81707000  0.64433000  1
  Yb  Yb12  1  0.31707000  0.64433000  0.24537000  1
  Yb  Yb13  1  0.31707000  0.85567000  0.74537000  1
  Yb  Yb14  1  0.35567000  0.74537000  0.18293000  1
  Yb  Yb15  1  0.35567000  0.75463000  0.68293000  1
  Yb  Yb16  1  0.64433000  0.24537000  0.31707000  1
  Yb  Yb17  1  0.64433000  0.25463000  0.81707000  1
  Yb  Yb18  1  0.68293000  0.14433000  0.25463000  1
  Yb  Yb19  1  0.68293000  0.35567000  0.75463000  1
  Yb  Yb20  1  0.74537000  0.18293000  0.35567000  1
  Yb  Yb21  1  0.74537000  0.31707000  0.85567000  1
  Yb  Yb22  1  0.74954000  0.24954000  0.25046000  1
  Yb  Yb23  1  0.74954000  0.25046000  0.75046000  1
  Yb  Yb24  1  0.75046000  0.74954000  0.25046000  1
  Yb  Yb25  1  0.75046000  0.75046000  0.75046000  1
  Yb  Yb26  1  0.75463000  0.68293000  0.35567000  1
  Yb  Yb27  1  0.75463000  0.81707000  0.85567000  1
  Yb  Yb28  1  0.81707000  0.64433000  0.25463000  1
  Yb  Yb29  1  0.81707000  0.85567000  0.75463000  1
  Yb  Yb30  1  0.85567000  0.74537000  0.31707000  1
  Yb  Yb31  1  0.85567000  0.75463000  0.81707000  1
  H  H32  1  0.00450000  0.69990000  0.30410000  1
  H  H33  1  0.00450000  0.80010000  0.80410000  1
  H  H34  1  0.02090000  0.71890000  0.72470000  1
  H  H35  1  0.02090000  0.78110000  0.22470000  1
  H  H36  1  0.02820000  0.24430000  0.91220000  1
  H  H37  1  0.02820000  0.25570000  0.41220000  1
  H  H38  1  0.02830000  0.56410000  0.22800000  1
  H  H39  1  0.02830000  0.93590000  0.72800000  1
  H  H40  1  0.03280000  0.71150000  0.10960000  1
  H  H41  1  0.03280000  0.78850000  0.60960000  1
  H  H42  1  0.04590000  0.09020000  0.25820000  1
  H  H43  1  0.04590000  0.40980000  0.75820000  1
  H  H44  1  0.05080000  0.24200000  0.28000000  1
  H  H45  1  0.05080000  0.25800000  0.78000000  1
  H  H46  1  0.06410000  0.22800000  0.47170000  1
  H  H47  1  0.06410000  0.27200000  0.97170000  1
  H  H48  1  0.07620000  0.67040000  0.29750000  1
  H  H49  1  0.07620000  0.82960000  0.79750000  1
  H  H50  1  0.08780000  0.52820000  0.25570000  1
  H  H51  1  0.08780000  0.97180000  0.75570000  1
  H  H52  1  0.09020000  0.24180000  0.54590000  1
  H  H53  1  0.09020000  0.25820000  0.04590000  1
  H  H54  1  0.09920000  0.73110000  0.73840000  1
  H  H55  1  0.09920000  0.76890000  0.23840000  1
  H  H56  1  0.10950000  0.70100000  0.12150000  1
  H  H57  1  0.10950000  0.79900000  0.62150000  1
  H  H58  1  0.10960000  0.03280000  0.71150000  1
  H  H59  1  0.10960000  0.46720000  0.21150000  1
  H  H60  1  0.12150000  0.10950000  0.70100000  1
  H  H61  1  0.12150000  0.39050000  0.20100000  1
  H  H62  1  0.13730000  0.65400000  0.25720000  1
  H  H63  1  0.13730000  0.84600000  0.75720000  1
  H  H64  1  0.15400000  0.24280000  0.86270000  1
  H  H65  1  0.15400000  0.25720000  0.36270000  1
  H  H66  1  0.15587000  0.15587000  0.15587000  1
  H  H67  1  0.15587000  0.34413000  0.65587000  1
  H  H68  1  0.16000000  0.23210000  0.27210000  1
  H  H69  1  0.16000000  0.26790000  0.77210000  1
  H  H70  1  0.17040000  0.20250000  0.92380000  1
  H  H71  1  0.17040000  0.29750000  0.42380000  1
  H  H72  1  0.19590000  0.50450000  0.69990000  1
  H  H73  1  0.19590000  0.99550000  0.19990000  1
  H  H74  1  0.19990000  0.19590000  0.99550000  1
  H  H75  1  0.19990000  0.30410000  0.49550000  1
  H  H76  1  0.20100000  0.12150000  0.39050000  1
  H  H77  1  0.20100000  0.37850000  0.89050000  1
  H  H78  1  0.20250000  0.57620000  0.67040000  1
  H  H79  1  0.20250000  0.92380000  0.17040000  1
  H  H80  1  0.21150000  0.10960000  0.46720000  1
  H  H81  1  0.21150000  0.39040000  0.96720000  1
  H  H82  1  0.21890000  0.72470000  0.47910000  1
  H  H83  1  0.21890000  0.77530000  0.97910000  1
  H  H84  1  0.22000000  0.55080000  0.24200000  1
  H  H85  1  0.22000000  0.94920000  0.74200000  1
  H  H86  1  0.22470000  0.02090000  0.78110000  1
  H  H87  1  0.22470000  0.47910000  0.28110000  1
  H  H88  1  0.22790000  0.66000000  0.23210000  1
  H  H89  1  0.22790000  0.84000000  0.73210000  1
  H  H90  1  0.22800000  0.02830000  0.56410000  1
  H  H91  1  0.22800000  0.47170000  0.06410000  1
  H  H92  1  0.23110000  0.73840000  0.40080000  1
  H  H93  1  0.23110000  0.76160000  0.90080000  1
  H  H94  1  0.23210000  0.22790000  0.66000000  1
  H  H95  1  0.23210000  0.27210000  0.16000000  1
  H  H96  1  0.23840000  0.09920000  0.76890000  1
  H  H97  1  0.23840000  0.40080000  0.26890000  1
  H  H98  1  0.24180000  0.54590000  0.09020000  1
  H  H99  1  0.24180000  0.95410000  0.59020000  1
  H  H100  1  0.24200000  0.22000000  0.55080000  1
  H  H101  1  0.24200000  0.28000000  0.05080000  1
  H  H102  1  0.24280000  0.63730000  0.65400000  1
  H  H103  1  0.24280000  0.86270000  0.15400000  1
  H  H104  1  0.24430000  0.58780000  0.52820000  1
  H  H105  1  0.24430000  0.91220000  0.02820000  1
  H  H106  1  0.25570000  0.08780000  0.52820000  1
  H  H107  1  0.25570000  0.41220000  0.02820000  1
  H  H108  1  0.25720000  0.13730000  0.65400000  1
  H  H109  1  0.25720000  0.36270000  0.15400000  1
  H  H110  1  0.25800000  0.72000000  0.55080000  1
  H  H111  1  0.25800000  0.78000000  0.05080000  1
  H  H112  1  0.25820000  0.04590000  0.09020000  1
  H  H113  1  0.25820000  0.45410000  0.59020000  1
  H  H114  1  0.26160000  0.59920000  0.76890000  1
  H  H115  1  0.26160000  0.90080000  0.26890000  1
  H  H116  1  0.26790000  0.72790000  0.66000000  1
  H  H117  1  0.26790000  0.77210000  0.16000000  1
  H  H118  1  0.26890000  0.23840000  0.40080000  1
  H  H119  1  0.26890000  0.26160000  0.90080000  1
  H  H120  1  0.27200000  0.52830000  0.56410000  1
  H  H121  1  0.27200000  0.97170000  0.06410000  1
  H  H122  1  0.27210000  0.16000000  0.23210000  1
  H  H123  1  0.27210000  0.34000000  0.73210000  1
  H  H124  1  0.27530000  0.52090000  0.78110000  1
  H  H125  1  0.27530000  0.97910000  0.28110000  1
  H  H126  1  0.28000000  0.05080000  0.24200000  1
  H  H127  1  0.28000000  0.44920000  0.74200000  1
  H  H128  1  0.28110000  0.22470000  0.47910000  1
  H  H129  1  0.28110000  0.27530000  0.97910000  1
  H  H130  1  0.28850000  0.60960000  0.46720000  1
  H  H131  1  0.28850000  0.89040000  0.96720000  1
  H  H132  1  0.29750000  0.07620000  0.67040000  1
  H  H133  1  0.29750000  0.42380000  0.17040000  1
  H  H134  1  0.29900000  0.62150000  0.39050000  1
  H  H135  1  0.29900000  0.87850000  0.89050000  1
  H  H136  1  0.30010000  0.69590000  0.99550000  1
  H  H137  1  0.30010000  0.80410000  0.49550000  1
  H  H138  1  0.30410000  0.00450000  0.69990000  1
  H  H139  1  0.30410000  0.49550000  0.19990000  1
  H  H140  1  0.32960000  0.70250000  0.92380000  1
  H  H141  1  0.32960000  0.79750000  0.42380000  1
  H  H142  1  0.34000000  0.73210000  0.27210000  1
  H  H143  1  0.34000000  0.76790000  0.77210000  1
  H  H144  1  0.34413000  0.65587000  0.15587000  1
  H  H145  1  0.34413000  0.84413000  0.65587000  1
  H  H146  1  0.34600000  0.74280000  0.86270000  1
  H  H147  1  0.34600000  0.75720000  0.36270000  1
  H  H148  1  0.36270000  0.15400000  0.25720000  1
  H  H149  1  0.36270000  0.34600000  0.75720000  1
  H  H150  1  0.37850000  0.60950000  0.70100000  1
  H  H151  1  0.37850000  0.89050000  0.20100000  1
  H  H152  1  0.39040000  0.53280000  0.71150000  1
  H  H153  1  0.39040000  0.96720000  0.21150000  1
  H  H154  1  0.39050000  0.20100000  0.12150000  1
  H  H155  1  0.39050000  0.29900000  0.62150000  1
  H  H156  1  0.40080000  0.23110000  0.73840000  1
  H  H157  1  0.40080000  0.26890000  0.23840000  1
  H  H158  1  0.40980000  0.74180000  0.54590000  1
  H  H159  1  0.40980000  0.75820000  0.04590000  1
  H  H160  1  0.41220000  0.02820000  0.25570000  1
  H  H161  1  0.41220000  0.47180000  0.75570000  1
  H  H162  1  0.42380000  0.17040000  0.29750000  1
  H  H163  1  0.42380000  0.32960000  0.79750000  1
  H  H164  1  0.43590000  0.72800000  0.47170000  1
  H  H165  1  0.43590000  0.77200000  0.97170000  1
  H  H166  1  0.44920000  0.74200000  0.28000000  1
  H  H167  1  0.44920000  0.75800000  0.78000000  1
  H  H168  1  0.45410000  0.59020000  0.25820000  1
  H  H169  1  0.45410000  0.90980000  0.75820000  1
  H  H170  1  0.46720000  0.21150000  0.10960000  1
  H  H171  1  0.46720000  0.28850000  0.60960000  1
  H  H172  1  0.47170000  0.06410000  0.22800000  1
  H  H173  1  0.47170000  0.43590000  0.72800000  1
  H  H174  1  0.47180000  0.74430000  0.91220000  1
  H  H175  1  0.47180000  0.75570000  0.41220000  1
  H  H176  1  0.47910000  0.21890000  0.72470000  1
  H  H177  1  0.47910000  0.28110000  0.22470000  1
  H  H178  1  0.49550000  0.19990000  0.30410000  1
  H  H179  1  0.49550000  0.30010000  0.80410000  1
  H  H180  1  0.50450000  0.69990000  0.19590000  1
  H  H181  1  0.50450000  0.80010000  0.69590000  1
  H  H182  1  0.52090000  0.71890000  0.77530000  1
  H  H183  1  0.52090000  0.78110000  0.27530000  1
  H  H184  1  0.52820000  0.24430000  0.58780000  1
  H  H185  1  0.52820000  0.25570000  0.08780000  1
  H  H186  1  0.52830000  0.56410000  0.27200000  1
  H  H187  1  0.52830000  0.93590000  0.77200000  1
  H  H188  1  0.53280000  0.71150000  0.39040000  1
  H  H189  1  0.53280000  0.78850000  0.89040000  1
  H  H190  1  0.54590000  0.09020000  0.24180000  1
  H  H191  1  0.54590000  0.40980000  0.74180000  1
  H  H192  1  0.55080000  0.24200000  0.22000000  1
  H  H193  1  0.55080000  0.25800000  0.72000000  1
  H  H194  1  0.56410000  0.22800000  0.02830000  1
  H  H195  1  0.56410000  0.27200000  0.52830000  1
  H  H196  1  0.57620000  0.67040000  0.20250000  1
  H  H197  1  0.57620000  0.82960000  0.70250000  1
  H  H198  1  0.58780000  0.52820000  0.24430000  1
  H  H199  1  0.58780000  0.97180000  0.74430000  1
  H  H200  1  0.59020000  0.24180000  0.95410000  1
  H  H201  1  0.59020000  0.25820000  0.45410000  1
  H  H202  1  0.59920000  0.73110000  0.76160000  1
  H  H203  1  0.59920000  0.76890000  0.26160000  1
  H  H204  1  0.60950000  0.70100000  0.37850000  1
  H  H205  1  0.60950000  0.79900000  0.87850000  1
  H  H206  1  0.60960000  0.03280000  0.78850000  1
  H  H207  1  0.60960000  0.46720000  0.28850000  1
  H  H208  1  0.62150000  0.10950000  0.79900000  1
  H  H209  1  0.62150000  0.39050000  0.29900000  1
  H  H210  1  0.63730000  0.65400000  0.24280000  1
  H  H211  1  0.63730000  0.84600000  0.74280000  1
  H  H212  1  0.65400000  0.24280000  0.63730000  1
  H  H213  1  0.65400000  0.25720000  0.13730000  1
  H  H214  1  0.65587000  0.15587000  0.34413000  1
  H  H215  1  0.65587000  0.34413000  0.84413000  1
  H  H216  1  0.66000000  0.23210000  0.22790000  1
  H  H217  1  0.66000000  0.26790000  0.72790000  1
  H  H218  1  0.67040000  0.20250000  0.57620000  1
  H  H219  1  0.67040000  0.29750000  0.07620000  1
  H  H220  1  0.69590000  0.50450000  0.80010000  1
  H  H221  1  0.69590000  0.99550000  0.30010000  1
  H  H222  1  0.69990000  0.19590000  0.50450000  1
  H  H223  1  0.69990000  0.30410000  0.00450000  1
  H  H224  1  0.70100000  0.12150000  0.10950000  1
  H  H225  1  0.70100000  0.37850000  0.60950000  1
  H  H226  1  0.70250000  0.57620000  0.82960000  1
  H  H227  1  0.70250000  0.92380000  0.32960000  1
  H  H228  1  0.71150000  0.10960000  0.03280000  1
  H  H229  1  0.71150000  0.39040000  0.53280000  1
  H  H230  1  0.71890000  0.72470000  0.02090000  1
  H  H231  1  0.71890000  0.77530000  0.52090000  1
  H  H232  1  0.72000000  0.55080000  0.25800000  1
  H  H233  1  0.72000000  0.94920000  0.75800000  1
  H  H234  1  0.72470000  0.02090000  0.71890000  1
  H  H235  1  0.72470000  0.47910000  0.21890000  1
  H  H236  1  0.72790000  0.66000000  0.26790000  1
  H  H237  1  0.72790000  0.84000000  0.76790000  1
  H  H238  1  0.72800000  0.02830000  0.93590000  1
  H  H239  1  0.72800000  0.47170000  0.43590000  1
  H  H240  1  0.73110000  0.73840000  0.09920000  1
  H  H241  1  0.73110000  0.76160000  0.59920000  1
  H  H242  1  0.73210000  0.22790000  0.84000000  1
  H  H243  1  0.73210000  0.27210000  0.34000000  1
  H  H244  1  0.73840000  0.09920000  0.73110000  1
  H  H245  1  0.73840000  0.40080000  0.23110000  1
  H  H246  1  0.74180000  0.54590000  0.40980000  1
  H  H247  1  0.74180000  0.95410000  0.90980000  1
  H  H248  1  0.74200000  0.22000000  0.94920000  1
  H  H249  1  0.74200000  0.28000000  0.44920000  1
  H  H250  1  0.74280000  0.63730000  0.84600000  1
  H  H251  1  0.74280000  0.86270000  0.34600000  1
  H  H252  1  0.74430000  0.58780000  0.97180000  1
  H  H253  1  0.74430000  0.91220000  0.47180000  1
  H  H254  1  0.75570000  0.08780000  0.97180000  1
  H  H255  1  0.75570000  0.41220000  0.47180000  1
  H  H256  1  0.75720000  0.13730000  0.84600000  1
  H  H257  1  0.75720000  0.36270000  0.34600000  1
  H  H258  1  0.75800000  0.72000000  0.94920000  1
  H  H259  1  0.75800000  0.78000000  0.44920000  1
  H  H260  1  0.75820000  0.04590000  0.40980000  1
  H  H261  1  0.75820000  0.45410000  0.90980000  1
  H  H262  1  0.76160000  0.59920000  0.73110000  1
  H  H263  1  0.76160000  0.90080000  0.23110000  1
  H  H264  1  0.76790000  0.72790000  0.84000000  1
  H  H265  1  0.76790000  0.77210000  0.34000000  1
  H  H266  1  0.76890000  0.23840000  0.09920000  1
  H  H267  1  0.76890000  0.26160000  0.59920000  1
  H  H268  1  0.77200000  0.52830000  0.93590000  1
  H  H269  1  0.77200000  0.97170000  0.43590000  1
  H  H270  1  0.77210000  0.16000000  0.26790000  1
  H  H271  1  0.77210000  0.34000000  0.76790000  1
  H  H272  1  0.77530000  0.52090000  0.71890000  1
  H  H273  1  0.77530000  0.97910000  0.21890000  1
  H  H274  1  0.78000000  0.05080000  0.25800000  1
  H  H275  1  0.78000000  0.44920000  0.75800000  1
  H  H276  1  0.78110000  0.22470000  0.02090000  1
  H  H277  1  0.78110000  0.27530000  0.52090000  1
  H  H278  1  0.78850000  0.60960000  0.03280000  1
  H  H279  1  0.78850000  0.89040000  0.53280000  1
  H  H280  1  0.79750000  0.07620000  0.82960000  1
  H  H281  1  0.79750000  0.42380000  0.32960000  1
  H  H282  1  0.79900000  0.62150000  0.10950000  1
  H  H283  1  0.79900000  0.87850000  0.60950000  1
  H  H284  1  0.80010000  0.69590000  0.50450000  1
  H  H285  1  0.80010000  0.80410000  0.00450000  1
  H  H286  1  0.80410000  0.00450000  0.80010000  1
  H  H287  1  0.80410000  0.49550000  0.30010000  1
  H  H288  1  0.82960000  0.70250000  0.57620000  1
  H  H289  1  0.82960000  0.79750000  0.07620000  1
  H  H290  1  0.84000000  0.73210000  0.22790000  1
  H  H291  1  0.84000000  0.76790000  0.72790000  1
  H  H292  1  0.84413000  0.65587000  0.34413000  1
  H  H293  1  0.84413000  0.84413000  0.84413000  1
  H  H294  1  0.84600000  0.74280000  0.63730000  1
  H  H295  1  0.84600000  0.75720000  0.13730000  1
  H  H296  1  0.86270000  0.15400000  0.24280000  1
  H  H297  1  0.86270000  0.34600000  0.74280000  1
  H  H298  1  0.87850000  0.60950000  0.79900000  1
  H  H299  1  0.87850000  0.89050000  0.29900000  1
  H  H300  1  0.89040000  0.53280000  0.78850000  1
  H  H301  1  0.89040000  0.96720000  0.28850000  1
  H  H302  1  0.89050000  0.20100000  0.37850000  1
  H  H303  1  0.89050000  0.29900000  0.87850000  1
  H  H304  1  0.90080000  0.23110000  0.76160000  1
  H  H305  1  0.90080000  0.26890000  0.26160000  1
  H  H306  1  0.90980000  0.74180000  0.95410000  1
  H  H307  1  0.90980000  0.75820000  0.45410000  1
  H  H308  1  0.91220000  0.02820000  0.24430000  1
  H  H309  1  0.91220000  0.47180000  0.74430000  1
  H  H310  1  0.92380000  0.17040000  0.20250000  1
  H  H311  1  0.92380000  0.32960000  0.70250000  1
  H  H312  1  0.93590000  0.72800000  0.02830000  1
  H  H313  1  0.93590000  0.77200000  0.52830000  1
  H  H314  1  0.94920000  0.74200000  0.22000000  1
  H  H315  1  0.94920000  0.75800000  0.72000000  1
  H  H316  1  0.95410000  0.59020000  0.24180000  1
  H  H317  1  0.95410000  0.90980000  0.74180000  1
  H  H318  1  0.96720000  0.21150000  0.39040000  1
  H  H319  1  0.96720000  0.28850000  0.89040000  1
  H  H320  1  0.97170000  0.06410000  0.27200000  1
  H  H321  1  0.97170000  0.43590000  0.77200000  1
  H  H322  1  0.97180000  0.74430000  0.58780000  1
  H  H323  1  0.97180000  0.75570000  0.08780000  1
  H  H324  1  0.97910000  0.21890000  0.77530000  1
  H  H325  1  0.97910000  0.28110000  0.27530000  1
  H  H326  1  0.99550000  0.19990000  0.19590000  1
  H  H327  1  0.99550000  0.30010000  0.69590000  1
  C  C328  1  0.00870000  0.67200000  0.28950000  1
  C  C329  1  0.00870000  0.82800000  0.78950000  1
  C  C330  1  0.01860000  0.74580000  0.16670000  1
  C  C331  1  0.01860000  0.75420000  0.66666667  1
  C  C332  1  0.02120000  0.10760000  0.24850000  1
  C  C333  1  0.02120000  0.39240000  0.74850000  1
  C  C334  1  0.02340000  0.59050000  0.24490000  1
  C  C335  1  0.02340000  0.90950000  0.74490000  1
  C  C336  1  0.02920000  0.14870000  0.22820000  1
  C  C337  1  0.02920000  0.35130000  0.72820000  1
  C  C338  1  0.03030000  0.24940000  0.84420000  1
  C  C339  1  0.03030000  0.25060000  0.34420000  1
  C  C340  1  0.03820000  0.73580000  0.70420000  1
  C  C341  1  0.03820000  0.76420000  0.20420000  1
  C  C342  1  0.04590000  0.72310000  0.13600000  1
  C  C343  1  0.04590000  0.77690000  0.63600000  1
  C  C344  1  0.04780000  0.24500000  0.88730000  1
  C  C345  1  0.04780000  0.25500000  0.38730000  1
  C  C346  1  0.05160000  0.65440000  0.28540000  1
  C  C347  1  0.05160000  0.84560000  0.78540000  1
  C  C348  1  0.05920000  0.61360000  0.26370000  1
  C  C349  1  0.05920000  0.88640000  0.76370000  1
  C  C350  1  0.06220000  0.24710000  0.30920000  1
  C  C351  1  0.06220000  0.25290000  0.80920000  1
  C  C352  1  0.07810000  0.16640000  0.22430000  1
  C  C353  1  0.07810000  0.33360000  0.72430000  1
  C  C354  1  0.08590000  0.74260000  0.71200000  1
  C  C355  1  0.08590000  0.75740000  0.21200000  1
  C  C356  1  0.09050000  0.24490000  0.47660000  1
  C  C357  1  0.09050000  0.25510000  0.97660000  1
  C  C358  1  0.09240000  0.71690000  0.14300000  1
  C  C359  1  0.09240000  0.78310000  0.64300000  1
  C  C360  1  0.09390000  0.24170000  0.89430000  1
  C  C361  1  0.09390000  0.25830000  0.39430000  1
  C  C362  1  0.10570000  0.59390000  0.25830000  1
  C  C363  1  0.10570000  0.90610000  0.75830000  1
  C  C364  1  0.10760000  0.24850000  0.02120000  1
  C  C365  1  0.10760000  0.25150000  0.52120000  1
  C  C366  1  0.11270000  0.54780000  0.25500000  1
  C  C367  1  0.11270000  0.95220000  0.75500000  1
  C  C368  1  0.11280000  0.73360000  0.18050000  1
  C  C369  1  0.11280000  0.76640000  0.68050000  1
  C  C370  1  0.11360000  0.23630000  0.94080000  1
  C  C371  1  0.11360000  0.26370000  0.44080000  1
  C  C372  1  0.12280000  0.24460000  0.85750000  1
  C  C373  1  0.12280000  0.25540000  0.35750000  1
  C  C374  1  0.13600000  0.04590000  0.72310000  1
  C  C375  1  0.13600000  0.45410000  0.22310000  1
  C  C376  1  0.14250000  0.62280000  0.25540000  1
  C  C377  1  0.14250000  0.87720000  0.75540000  1
  C  C378  1  0.14300000  0.09240000  0.71690000  1
  C  C379  1  0.14300000  0.40760000  0.21690000  1
  C  C380  1  0.14870000  0.22820000  0.02920000  1
  C  C381  1  0.14870000  0.27180000  0.52920000  1
  C  C382  1  0.15440000  0.21460000  0.94840000  1
  C  C383  1  0.15440000  0.28540000  0.44840000  1
  C  C384  1  0.15580000  0.53030000  0.25060000  1
  C  C385  1  0.15580000  0.96970000  0.75060000  1
  C  C386  1  0.15930000  0.73720000  0.18380000  1
  C  C387  1  0.15930000  0.76280000  0.68380000  1
  C  C388  1  0.16640000  0.22430000  0.07810000  1
  C  C389  1  0.16640000  0.27570000  0.57810000  1
  C  C390  1  0.16670000  0.01860000  0.74580000  1
  C  C391  1  0.16670000  0.48140000  0.24580000  1
  C  C392  1  0.17200000  0.21050000  0.99130000  1
  C  C393  1  0.17200000  0.28950000  0.49130000  1
  C  C394  1  0.18050000  0.11280000  0.73360000  1
  C  C395  1  0.18050000  0.38720000  0.23360000  1
  C  C396  1  0.18380000  0.15930000  0.73720000  1
  C  C397  1  0.18380000  0.34070000  0.23720000  1
  C  C398  1  0.19080000  0.56220000  0.24710000  1
  C  C399  1  0.19080000  0.93780000  0.74710000  1
  C  C400  1  0.20420000  0.03820000  0.76420000  1
  C  C401  1  0.20420000  0.46180000  0.26420000  1
  C  C402  1  0.21050000  0.50870000  0.67200000  1
  C  C403  1  0.21050000  0.99130000  0.17200000  1
  C  C404  1  0.21200000  0.08590000  0.75740000  1
  C  C405  1  0.21200000  0.41410000  0.25740000  1
  C  C406  1  0.21460000  0.55160000  0.65440000  1
  C  C407  1  0.21460000  0.94840000  0.15440000  1
  C  C408  1  0.21690000  0.14300000  0.40760000  1
  C  C409  1  0.21690000  0.35700000  0.90760000  1
  C  C410  1  0.22310000  0.13600000  0.45410000  1
  C  C411  1  0.22310000  0.36400000  0.95410000  1
  C  C412  1  0.22430000  0.07810000  0.16640000  1
  C  C413  1  0.22430000  0.42190000  0.66640000  1
  C  C414  1  0.22820000  0.02920000  0.14870000  1
  C  C415  1  0.22820000  0.47080000  0.64870000  1
  C  C416  1  0.23360000  0.18050000  0.38720000  1
  C  C417  1  0.23360000  0.31950000  0.88720000  1
  C  C418  1  0.23580000  0.70420000  0.46180000  1
  C  C419  1  0.23580000  0.79580000  0.96180000  1
  C  C420  1  0.23630000  0.55920000  0.61360000  1
  C  C421  1  0.23630000  0.94080000  0.11360000  1
  C  C422  1  0.23720000  0.18380000  0.34070000  1
  C  C423  1  0.23720000  0.31620000  0.84070000  1
  C  C424  1  0.24170000  0.60570000  0.59390000  1
  C  C425  1  0.24170000  0.89430000  0.09390000  1
  C  C426  1  0.24260000  0.71200000  0.41410000  1
  C  C427  1  0.24260000  0.78800000  0.91410000  1
  C  C428  1  0.24460000  0.64250000  0.62280000  1
  C  C429  1  0.24460000  0.85750000  0.12280000  1
  C  C430  1  0.24490000  0.02340000  0.59050000  1
  C  C431  1  0.24490000  0.47660000  0.09050000  1
  C  C432  1  0.24500000  0.61270000  0.54780000  1
  C  C433  1  0.24500000  0.88730000  0.04780000  1
  C  C434  1  0.24580000  0.16670000  0.48140000  1
  C  C435  1  0.24580000  0.33333333  0.98140000  1
  C  C436  1  0.24710000  0.19080000  0.56220000  1
  C  C437  1  0.24710000  0.30920000  0.06220000  1
  C  C438  1  0.24850000  0.02120000  0.10760000  1
  C  C439  1  0.24850000  0.47880000  0.60760000  1
  C  C440  1  0.24940000  0.65580000  0.53030000  1
  C  C441  1  0.24940000  0.84420000  0.03030000  1
  C  C442  1  0.25060000  0.15580000  0.53030000  1
  C  C443  1  0.25060000  0.34420000  0.03030000  1
  C  C444  1  0.25150000  0.52120000  0.10760000  1
  C  C445  1  0.25150000  0.97880000  0.60760000  1
  C  C446  1  0.25290000  0.69080000  0.56220000  1
  C  C447  1  0.25290000  0.80920000  0.06220000  1
  C  C448  1  0.25420000  0.66666667  0.48140000  1
  C  C449  1  0.25420000  0.83330000  0.98140000  1
  C  C450  1  0.25500000  0.11270000  0.54780000  1
  C  C451  1  0.25500000  0.38730000  0.04780000  1
  C  C452  1  0.25510000  0.52340000  0.59050000  1
  C  C453  1  0.25510000  0.97660000  0.09050000  1
  C  C454  1  0.25540000  0.14250000  0.62280000  1
  C  C455  1  0.25540000  0.35750000  0.12280000  1
  C  C456  1  0.25740000  0.21200000  0.41410000  1
  C  C457  1  0.25740000  0.28800000  0.91410000  1
  C  C458  1  0.25830000  0.10570000  0.59390000  1
  C  C459  1  0.25830000  0.39430000  0.09390000  1
  C  C460  1  0.26280000  0.68380000  0.34070000  1
  C  C461  1  0.26280000  0.81620000  0.84070000  1
  C  C462  1  0.26370000  0.05920000  0.61360000  1
  C  C463  1  0.26370000  0.44080000  0.11360000  1
  C  C464  1  0.26420000  0.20420000  0.46180000  1
  C  C465  1  0.26420000  0.29580000  0.96180000  1
  C  C466  1  0.26640000  0.68050000  0.38720000  1
  C  C467  1  0.26640000  0.81950000  0.88720000  1
  C  C468  1  0.27180000  0.52920000  0.14870000  1
  C  C469  1  0.27180000  0.97080000  0.64870000  1
  C  C470  1  0.27570000  0.57810000  0.16640000  1
  C  C471  1  0.27570000  0.92190000  0.66640000  1
  C  C472  1  0.27690000  0.63600000  0.45410000  1
  C  C473  1  0.27690000  0.86400000  0.95410000  1
  C  C474  1  0.28310000  0.64300000  0.40760000  1
  C  C475  1  0.28310000  0.85700000  0.90760000  1
  C  C476  1  0.28540000  0.05160000  0.65440000  1
  C  C477  1  0.28540000  0.44840000  0.15440000  1
  C  C478  1  0.28800000  0.58590000  0.75740000  1
  C  C479  1  0.28800000  0.91410000  0.25740000  1
  C  C480  1  0.28950000  0.00870000  0.67200000  1
  C  C481  1  0.28950000  0.49130000  0.17200000  1
  C  C482  1  0.29580000  0.53820000  0.76420000  1
  C  C483  1  0.29580000  0.96180000  0.26420000  1
  C  C484  1  0.30920000  0.06220000  0.24710000  1
  C  C485  1  0.30920000  0.43780000  0.74710000  1
  C  C486  1  0.31620000  0.65930000  0.73720000  1
  C  C487  1  0.31620000  0.84070000  0.23720000  1
  C  C488  1  0.31950000  0.61280000  0.73360000  1
  C  C489  1  0.31950000  0.88720000  0.23360000  1
  C  C490  1  0.32800000  0.71050000  0.99130000  1
  C  C491  1  0.32800000  0.78950000  0.49130000  1
  C  C492  1  0.33333333  0.51860000  0.74580000  1
  C  C493  1  0.33333333  0.98140000  0.24580000  1
  C  C494  1  0.33360000  0.72430000  0.07810000  1
  C  C495  1  0.33360000  0.77570000  0.57810000  1
  C  C496  1  0.34070000  0.23720000  0.18380000  1
  C  C497  1  0.34070000  0.26280000  0.68380000  1
  C  C498  1  0.34420000  0.03030000  0.25060000  1
  C  C499  1  0.34420000  0.46970000  0.75060000  1
  C  C500  1  0.34560000  0.71460000  0.94840000  1
  C  C501  1  0.34560000  0.78540000  0.44840000  1
  C  C502  1  0.35130000  0.72820000  0.02920000  1
  C  C503  1  0.35130000  0.77180000  0.52920000  1
  C  C504  1  0.35700000  0.59240000  0.71690000  1
  C  C505  1  0.35700000  0.90760000  0.21690000  1
  C  C506  1  0.35750000  0.12280000  0.25540000  1
  C  C507  1  0.35750000  0.37720000  0.75540000  1
  C  C508  1  0.36400000  0.54590000  0.72310000  1
  C  C509  1  0.36400000  0.95410000  0.22310000  1
  C  C510  1  0.37720000  0.74460000  0.85750000  1
  C  C511  1  0.37720000  0.75540000  0.35750000  1
  C  C512  1  0.38640000  0.73630000  0.94080000  1
  C  C513  1  0.38640000  0.76370000  0.44080000  1
  C  C514  1  0.38720000  0.23360000  0.18050000  1
  C  C515  1  0.38720000  0.26640000  0.68050000  1
  C  C516  1  0.38730000  0.04780000  0.25500000  1
  C  C517  1  0.38730000  0.45220000  0.75500000  1
  C  C518  1  0.39240000  0.74850000  0.02120000  1
  C  C519  1  0.39240000  0.75150000  0.52120000  1
  C  C520  1  0.39430000  0.09390000  0.25830000  1
  C  C521  1  0.39430000  0.40610000  0.75830000  1
  C  C522  1  0.40610000  0.74170000  0.89430000  1
  C  C523  1  0.40610000  0.75830000  0.39430000  1
  C  C524  1  0.40760000  0.21690000  0.14300000  1
  C  C525  1  0.40760000  0.28310000  0.64300000  1
  C  C526  1  0.40950000  0.74490000  0.47660000  1
  C  C527  1  0.40950000  0.75510000  0.97660000  1
  C  C528  1  0.41410000  0.24260000  0.71200000  1
  C  C529  1  0.41410000  0.25740000  0.21200000  1
  C  C530  1  0.42190000  0.66640000  0.22430000  1
  C  C531  1  0.42190000  0.83360000  0.72430000  1
  C  C532  1  0.43780000  0.74710000  0.30920000  1
  C  C533  1  0.43780000  0.75290000  0.80920000  1
  C  C534  1  0.44080000  0.11360000  0.26370000  1
  C  C535  1  0.44080000  0.38640000  0.76370000  1
  C  C536  1  0.44840000  0.15440000  0.28540000  1
  C  C537  1  0.44840000  0.34560000  0.78540000  1
  C  C538  1  0.45220000  0.74500000  0.88730000  1
  C  C539  1  0.45220000  0.75500000  0.38730000  1
  C  C540  1  0.45410000  0.22310000  0.13600000  1
  C  C541  1  0.45410000  0.27690000  0.63600000  1
  C  C542  1  0.46180000  0.23580000  0.70420000  1
  C  C543  1  0.46180000  0.26420000  0.20420000  1
  C  C544  1  0.46970000  0.74940000  0.84420000  1
  C  C545  1  0.46970000  0.75060000  0.34420000  1
  C  C546  1  0.47080000  0.64870000  0.22820000  1
  C  C547  1  0.47080000  0.85130000  0.72820000  1
  C  C548  1  0.47660000  0.09050000  0.24490000  1
  C  C549  1  0.47660000  0.40950000  0.74490000  1
  C  C550  1  0.47880000  0.60760000  0.24850000  1
  C  C551  1  0.47880000  0.89240000  0.74850000  1
  C  C552  1  0.48140000  0.24580000  0.16670000  1
  C  C553  1  0.48140000  0.25420000  0.66666667  1
  C  C554  1  0.49130000  0.17200000  0.28950000  1
  C  C555  1  0.49130000  0.32800000  0.78950000  1
  C  C556  1  0.50870000  0.67200000  0.21050000  1
  C  C557  1  0.50870000  0.82800000  0.71050000  1
  C  C558  1  0.51860000  0.74580000  0.33333333  1
  C  C559  1  0.51860000  0.75420000  0.83330000  1
  C  C560  1  0.52120000  0.10760000  0.25150000  1
  C  C561  1  0.52120000  0.39240000  0.75150000  1
  C  C562  1  0.52340000  0.59050000  0.25510000  1
  C  C563  1  0.52340000  0.90950000  0.75510000  1
  C  C564  1  0.52920000  0.14870000  0.27180000  1
  C  C565  1  0.52920000  0.35130000  0.77180000  1
  C  C566  1  0.53030000  0.24940000  0.65580000  1
  C  C567  1  0.53030000  0.25060000  0.15580000  1
  C  C568  1  0.53820000  0.73580000  0.79580000  1
  C  C569  1  0.53820000  0.76420000  0.29580000  1
  C  C570  1  0.54590000  0.72310000  0.36400000  1
  C  C571  1  0.54590000  0.77690000  0.86400000  1
  C  C572  1  0.54780000  0.24500000  0.61270000  1
  C  C573  1  0.54780000  0.25500000  0.11270000  1
  C  C574  1  0.55160000  0.65440000  0.21460000  1
  C  C575  1  0.55160000  0.84560000  0.71460000  1
  C  C576  1  0.55920000  0.61360000  0.23630000  1
  C  C577  1  0.55920000  0.88640000  0.73630000  1
  C  C578  1  0.56220000  0.24710000  0.19080000  1
  C  C579  1  0.56220000  0.25290000  0.69080000  1
  C  C580  1  0.57810000  0.16640000  0.27570000  1
  C  C581  1  0.57810000  0.33360000  0.77570000  1
  C  C582  1  0.58590000  0.74260000  0.78800000  1
  C  C583  1  0.58590000  0.75740000  0.28800000  1
  C  C584  1  0.59050000  0.24490000  0.02340000  1
  C  C585  1  0.59050000  0.25510000  0.52340000  1
  C  C586  1  0.59240000  0.71690000  0.35700000  1
  C  C587  1  0.59240000  0.78310000  0.85700000  1
  C  C588  1  0.59390000  0.24170000  0.60570000  1
  C  C589  1  0.59390000  0.25830000  0.10570000  1
  C  C590  1  0.60570000  0.59390000  0.24170000  1
  C  C591  1  0.60570000  0.90610000  0.74170000  1
  C  C592  1  0.60760000  0.24850000  0.47880000  1
  C  C593  1  0.60760000  0.25150000  0.97880000  1
  C  C594  1  0.61270000  0.54780000  0.24500000  1
  C  C595  1  0.61270000  0.95220000  0.74500000  1
  C  C596  1  0.61280000  0.73360000  0.31950000  1
  C  C597  1  0.61280000  0.76640000  0.81950000  1
  C  C598  1  0.61360000  0.23630000  0.55920000  1
  C  C599  1  0.61360000  0.26370000  0.05920000  1
  C  C600  1  0.62280000  0.24460000  0.64250000  1
  C  C601  1  0.62280000  0.25540000  0.14250000  1
  C  C602  1  0.63600000  0.04590000  0.77690000  1
  C  C603  1  0.63600000  0.45410000  0.27690000  1
  C  C604  1  0.64250000  0.62280000  0.24460000  1
  C  C605  1  0.64250000  0.87720000  0.74460000  1
  C  C606  1  0.64300000  0.09240000  0.78310000  1
  C  C607  1  0.64300000  0.40760000  0.28310000  1
  C  C608  1  0.64870000  0.22820000  0.47080000  1
  C  C609  1  0.64870000  0.27180000  0.97080000  1
  C  C610  1  0.65440000  0.21460000  0.55160000  1
  C  C611  1  0.65440000  0.28540000  0.05160000  1
  C  C612  1  0.65580000  0.53030000  0.24940000  1
  C  C613  1  0.65580000  0.96970000  0.74940000  1
  C  C614  1  0.65930000  0.73720000  0.31620000  1
  C  C615  1  0.65930000  0.76280000  0.81620000  1
  C  C616  1  0.66640000  0.22430000  0.42190000  1
  C  C617  1  0.66640000  0.27570000  0.92190000  1
  C  C618  1  0.66666667  0.01860000  0.75420000  1
  C  C619  1  0.66666667  0.48140000  0.25420000  1
  C  C620  1  0.67200000  0.21050000  0.50870000  1
  C  C621  1  0.67200000  0.28950000  0.00870000  1
  C  C622  1  0.68050000  0.11280000  0.76640000  1
  C  C623  1  0.68050000  0.38720000  0.26640000  1
  C  C624  1  0.68380000  0.15930000  0.76280000  1
  C  C625  1  0.68380000  0.34070000  0.26280000  1
  C  C626  1  0.69080000  0.56220000  0.25290000  1
  C  C627  1  0.69080000  0.93780000  0.75290000  1
  C  C628  1  0.70420000  0.03820000  0.73580000  1
  C  C629  1  0.70420000  0.46180000  0.23580000  1
  C  C630  1  0.71050000  0.50870000  0.82800000  1
  C  C631  1  0.71050000  0.99130000  0.32800000  1
  C  C632  1  0.71200000  0.08590000  0.74260000  1
  C  C633  1  0.71200000  0.41410000  0.24260000  1
  C  C634  1  0.71460000  0.55160000  0.84560000  1
  C  C635  1  0.71460000  0.94840000  0.34560000  1
  C  C636  1  0.71690000  0.14300000  0.09240000  1
  C  C637  1  0.71690000  0.35700000  0.59240000  1
  C  C638  1  0.72310000  0.13600000  0.04590000  1
  C  C639  1  0.72310000  0.36400000  0.54590000  1
  C  C640  1  0.72430000  0.07810000  0.33360000  1
  C  C641  1  0.72430000  0.42190000  0.83360000  1
  C  C642  1  0.72820000  0.02920000  0.35130000  1
  C  C643  1  0.72820000  0.47080000  0.85130000  1
  C  C644  1  0.73360000  0.18050000  0.11280000  1
  C  C645  1  0.73360000  0.31950000  0.61280000  1
  C  C646  1  0.73580000  0.70420000  0.03820000  1
  C  C647  1  0.73580000  0.79580000  0.53820000  1
  C  C648  1  0.73630000  0.55920000  0.88640000  1
  C  C649  1  0.73630000  0.94080000  0.38640000  1
  C  C650  1  0.73720000  0.18380000  0.15930000  1
  C  C651  1  0.73720000  0.31620000  0.65930000  1
  C  C652  1  0.74170000  0.60570000  0.90610000  1
  C  C653  1  0.74170000  0.89430000  0.40610000  1
  C  C654  1  0.74260000  0.71200000  0.08590000  1
  C  C655  1  0.74260000  0.78800000  0.58590000  1
  C  C656  1  0.74460000  0.64250000  0.87720000  1
  C  C657  1  0.74460000  0.85750000  0.37720000  1
  C  C658  1  0.74490000  0.02340000  0.90950000  1
  C  C659  1  0.74490000  0.47660000  0.40950000  1
  C  C660  1  0.74500000  0.61270000  0.95220000  1
  C  C661  1  0.74500000  0.88730000  0.45220000  1
  C  C662  1  0.74580000  0.16670000  0.01860000  1
  C  C663  1  0.74580000  0.33333333  0.51860000  1
  C  C664  1  0.74710000  0.19080000  0.93780000  1
  C  C665  1  0.74710000  0.30920000  0.43780000  1
  C  C666  1  0.74850000  0.02120000  0.39240000  1
  C  C667  1  0.74850000  0.47880000  0.89240000  1
  C  C668  1  0.74940000  0.65580000  0.96970000  1
  C  C669  1  0.74940000  0.84420000  0.46970000  1
  C  C670  1  0.75060000  0.15580000  0.96970000  1
  C  C671  1  0.75060000  0.34420000  0.46970000  1
  C  C672  1  0.75150000  0.52120000  0.39240000  1
  C  C673  1  0.75150000  0.97880000  0.89240000  1
  C  C674  1  0.75290000  0.69080000  0.93780000  1
  C  C675  1  0.75290000  0.80920000  0.43780000  1
  C  C676  1  0.75420000  0.66666667  0.01860000  1
  C  C677  1  0.75420000  0.83330000  0.51860000  1
  C  C678  1  0.75500000  0.11270000  0.95220000  1
  C  C679  1  0.75500000  0.38730000  0.45220000  1
  C  C680  1  0.75510000  0.52340000  0.90950000  1
  C  C681  1  0.75510000  0.97660000  0.40950000  1
  C  C682  1  0.75540000  0.14250000  0.87720000  1
  C  C683  1  0.75540000  0.35750000  0.37720000  1
  C  C684  1  0.75740000  0.21200000  0.08590000  1
  C  C685  1  0.75740000  0.28800000  0.58590000  1
  C  C686  1  0.75830000  0.10570000  0.90610000  1
  C  C687  1  0.75830000  0.39430000  0.40610000  1
  C  C688  1  0.76280000  0.68380000  0.15930000  1
  C  C689  1  0.76280000  0.81620000  0.65930000  1
  C  C690  1  0.76370000  0.05920000  0.88640000  1
  C  C691  1  0.76370000  0.44080000  0.38640000  1
  C  C692  1  0.76420000  0.20420000  0.03820000  1
  C  C693  1  0.76420000  0.29580000  0.53820000  1
  C  C694  1  0.76640000  0.68050000  0.11280000  1
  C  C695  1  0.76640000  0.81950000  0.61280000  1
  C  C696  1  0.77180000  0.52920000  0.35130000  1
  C  C697  1  0.77180000  0.97080000  0.85130000  1
  C  C698  1  0.77570000  0.57810000  0.33360000  1
  C  C699  1  0.77570000  0.92190000  0.83360000  1
  C  C700  1  0.77690000  0.63600000  0.04590000  1
  C  C701  1  0.77690000  0.86400000  0.54590000  1
  C  C702  1  0.78310000  0.64300000  0.09240000  1
  C  C703  1  0.78310000  0.85700000  0.59240000  1
  C  C704  1  0.78540000  0.05160000  0.84560000  1
  C  C705  1  0.78540000  0.44840000  0.34560000  1
  C  C706  1  0.78800000  0.58590000  0.74260000  1
  C  C707  1  0.78800000  0.91410000  0.24260000  1
  C  C708  1  0.78950000  0.00870000  0.82800000  1
  C  C709  1  0.78950000  0.49130000  0.32800000  1
  C  C710  1  0.79580000  0.53820000  0.73580000  1
  C  C711  1  0.79580000  0.96180000  0.23580000  1
  C  C712  1  0.80920000  0.06220000  0.25290000  1
  C  C713  1  0.80920000  0.43780000  0.75290000  1
  C  C714  1  0.81620000  0.65930000  0.76280000  1
  C  C715  1  0.81620000  0.84070000  0.26280000  1
  C  C716  1  0.81950000  0.61280000  0.76640000  1
  C  C717  1  0.81950000  0.88720000  0.26640000  1
  C  C718  1  0.82800000  0.71050000  0.50870000  1
  C  C719  1  0.82800000  0.78950000  0.00870000  1
  C  C720  1  0.83330000  0.51860000  0.75420000  1
  C  C721  1  0.83330000  0.98140000  0.25420000  1
  C  C722  1  0.83360000  0.72430000  0.42190000  1
  C  C723  1  0.83360000  0.77570000  0.92190000  1
  C  C724  1  0.84070000  0.23720000  0.31620000  1
  C  C725  1  0.84070000  0.26280000  0.81620000  1
  C  C726  1  0.84420000  0.03030000  0.24940000  1
  C  C727  1  0.84420000  0.46970000  0.74940000  1
  C  C728  1  0.84560000  0.71460000  0.55160000  1
  C  C729  1  0.84560000  0.78540000  0.05160000  1
  C  C730  1  0.85130000  0.72820000  0.47080000  1
  C  C731  1  0.85130000  0.77180000  0.97080000  1
  C  C732  1  0.85700000  0.59240000  0.78310000  1
  C  C733  1  0.85700000  0.90760000  0.28310000  1
  C  C734  1  0.85750000  0.12280000  0.24460000  1
  C  C735  1  0.85750000  0.37720000  0.74460000  1
  C  C736  1  0.86400000  0.54590000  0.77690000  1
  C  C737  1  0.86400000  0.95410000  0.27690000  1
  C  C738  1  0.87720000  0.74460000  0.64250000  1
  C  C739  1  0.87720000  0.75540000  0.14250000  1
  C  C740  1  0.88640000  0.73630000  0.55920000  1
  C  C741  1  0.88640000  0.76370000  0.05920000  1
  C  C742  1  0.88720000  0.23360000  0.31950000  1
  C  C743  1  0.88720000  0.26640000  0.81950000  1
  C  C744  1  0.88730000  0.04780000  0.24500000  1
  C  C745  1  0.88730000  0.45220000  0.74500000  1
  C  C746  1  0.89240000  0.74850000  0.47880000  1
  C  C747  1  0.89240000  0.75150000  0.97880000  1
  C  C748  1  0.89430000  0.09390000  0.24170000  1
  C  C749  1  0.89430000  0.40610000  0.74170000  1
  C  C750  1  0.90610000  0.74170000  0.60570000  1
  C  C751  1  0.90610000  0.75830000  0.10570000  1
  C  C752  1  0.90760000  0.21690000  0.35700000  1
  C  C753  1  0.90760000  0.28310000  0.85700000  1
  C  C754  1  0.90950000  0.74490000  0.02340000  1
  C  C755  1  0.90950000  0.75510000  0.52340000  1
  C  C756  1  0.91410000  0.24260000  0.78800000  1
  C  C757  1  0.91410000  0.25740000  0.28800000  1
  C  C758  1  0.92190000  0.66640000  0.27570000  1
  C  C759  1  0.92190000  0.83360000  0.77570000  1
  C  C760  1  0.93780000  0.74710000  0.19080000  1
  C  C761  1  0.93780000  0.75290000  0.69080000  1
  C  C762  1  0.94080000  0.11360000  0.23630000  1
  C  C763  1  0.94080000  0.38640000  0.73630000  1
  C  C764  1  0.94840000  0.15440000  0.21460000  1
  C  C765  1  0.94840000  0.34560000  0.71460000  1
  C  C766  1  0.95220000  0.74500000  0.61270000  1
  C  C767  1  0.95220000  0.75500000  0.11270000  1
  C  C768  1  0.95410000  0.22310000  0.36400000  1
  C  C769  1  0.95410000  0.27690000  0.86400000  1
  C  C770  1  0.96180000  0.23580000  0.79580000  1
  C  C771  1  0.96180000  0.26420000  0.29580000  1
  C  C772  1  0.96970000  0.74940000  0.65580000  1
  C  C773  1  0.96970000  0.75060000  0.15580000  1
  C  C774  1  0.97080000  0.64870000  0.27180000  1
  C  C775  1  0.97080000  0.85130000  0.77180000  1
  C  C776  1  0.97660000  0.09050000  0.25510000  1
  C  C777  1  0.97660000  0.40950000  0.75510000  1
  C  C778  1  0.97880000  0.60760000  0.25150000  1
  C  C779  1  0.97880000  0.89240000  0.75150000  1
  C  C780  1  0.98140000  0.24580000  0.33333333  1
  C  C781  1  0.98140000  0.25420000  0.83330000  1
  C  C782  1  0.99130000  0.17200000  0.21050000  1
  C  C783  1  0.99130000  0.32800000  0.71050000  1
  N  N784  1  0.10760000  0.24980000  0.81320000  1
  N  N785  1  0.10760000  0.25020000  0.31320000  1
  N  N786  1  0.18680000  0.60760000  0.25020000  1
  N  N787  1  0.18680000  0.89240000  0.75020000  1
  N  N788  1  0.24980000  0.68680000  0.60760000  1
  N  N789  1  0.24980000  0.81320000  0.10760000  1
  N  N790  1  0.25020000  0.18680000  0.60760000  1
  N  N791  1  0.25020000  0.31320000  0.10760000  1
  N  N792  1  0.31320000  0.10760000  0.25020000  1
  N  N793  1  0.31320000  0.39240000  0.75020000  1
  N  N794  1  0.39240000  0.74980000  0.81320000  1
  N  N795  1  0.39240000  0.75020000  0.31320000  1
  N  N796  1  0.60760000  0.24980000  0.68680000  1
  N  N797  1  0.60760000  0.25020000  0.18680000  1
  N  N798  1  0.68680000  0.60760000  0.24980000  1
  N  N799  1  0.68680000  0.89240000  0.74980000  1
  N  N800  1  0.74980000  0.68680000  0.89240000  1
  N  N801  1  0.74980000  0.81320000  0.39240000  1
  N  N802  1  0.75020000  0.18680000  0.89240000  1
  N  N803  1  0.75020000  0.31320000  0.39240000  1
  N  N804  1  0.81320000  0.10760000  0.24980000  1
  N  N805  1  0.81320000  0.39240000  0.74980000  1
  N  N806  1  0.89240000  0.74980000  0.68680000  1
  N  N807  1  0.89240000  0.75020000  0.18680000  1
  O  O808  1  0.08211000  0.20330000  0.20330000  1
  O  O809  1  0.08211000  0.29670000  0.70330000  1
  O  O810  1  0.10805000  0.14366000  0.24390000  1
  O  O811  1  0.10805000  0.35634000  0.74390000  1
  O  O812  1  0.14366000  0.24390000  0.10805000  1
  O  O813  1  0.14366000  0.25610000  0.60805000  1
  O  O814  1  0.15740000  0.18479000  0.70750000  1
  O  O815  1  0.15740000  0.31521000  0.20750000  1
  O  O816  1  0.17257000  0.17257000  0.17257000  1
  O  O817  1  0.17257000  0.32743000  0.67257000  1
  O  O818  1  0.17526000  0.22326000  0.24900000  1
  O  O819  1  0.17526000  0.27674000  0.74900000  1
  O  O820  1  0.18060000  0.74990000  0.21980000  1
  O  O821  1  0.18060000  0.75010000  0.71980000  1
  O  O822  1  0.18479000  0.70750000  0.15740000  1
  O  O823  1  0.18479000  0.79250000  0.65740000  1
  O  O824  1  0.20330000  0.08211000  0.20330000  1
  O  O825  1  0.20330000  0.20330000  0.08211000  1
  O  O826  1  0.20330000  0.29670000  0.58211000  1
  O  O827  1  0.20330000  0.41789000  0.70330000  1
  O  O828  1  0.20750000  0.15740000  0.31521000  1
  O  O829  1  0.20750000  0.34260000  0.81521000  1
  O  O830  1  0.21980000  0.18060000  0.74990000  1
  O  O831  1  0.21980000  0.31940000  0.24990000  1
  O  O832  1  0.22326000  0.24900000  0.17526000  1
  O  O833  1  0.22326000  0.25100000  0.67526000  1
  O  O834  1  0.24390000  0.10805000  0.14366000  1
  O  O835  1  0.24390000  0.39195000  0.64366000  1
  O  O836  1  0.24900000  0.17526000  0.22326000  1
  O  O837  1  0.24900000  0.32474000  0.72326000  1
  O  O838  1  0.24990000  0.21980000  0.31940000  1
  O  O839  1  0.24990000  0.28020000  0.81940000  1
  O  O840  1  0.25010000  0.71980000  0.31940000  1
  O  O841  1  0.25010000  0.78020000  0.81940000  1
  O  O842  1  0.25100000  0.67526000  0.22326000  1
  O  O843  1  0.25100000  0.82474000  0.72326000  1
  O  O844  1  0.25610000  0.60805000  0.14366000  1
  O  O845  1  0.25610000  0.89195000  0.64366000  1
  O  O846  1  0.27674000  0.74900000  0.17526000  1
  O  O847  1  0.27674000  0.75100000  0.67526000  1
  O  O848  1  0.28020000  0.68060000  0.74990000  1
  O  O849  1  0.28020000  0.81940000  0.24990000  1
  O  O850  1  0.29250000  0.65740000  0.31521000  1
  O  O851  1  0.29250000  0.84260000  0.81521000  1
  O  O852  1  0.29670000  0.58211000  0.20330000  1
  O  O853  1  0.29670000  0.70330000  0.08211000  1
  O  O854  1  0.29670000  0.79670000  0.58211000  1
  O  O855  1  0.29670000  0.91789000  0.70330000  1
  O  O856  1  0.31521000  0.20750000  0.15740000  1
  O  O857  1  0.31521000  0.29250000  0.65740000  1
  O  O858  1  0.31940000  0.24990000  0.21980000  1
  O  O859  1  0.31940000  0.25010000  0.71980000  1
  O  O860  1  0.32474000  0.72326000  0.24900000  1
  O  O861  1  0.32474000  0.77674000  0.74900000  1
  O  O862  1  0.32743000  0.67257000  0.17257000  1
  O  O863  1  0.32743000  0.82743000  0.67257000  1
  O  O864  1  0.34260000  0.68479000  0.70750000  1
  O  O865  1  0.34260000  0.81521000  0.20750000  1
  O  O866  1  0.35634000  0.74390000  0.10805000  1
  O  O867  1  0.35634000  0.75610000  0.60805000  1
  O  O868  1  0.39195000  0.64366000  0.24390000  1
  O  O869  1  0.39195000  0.85634000  0.74390000  1
  O  O870  1  0.41789000  0.70330000  0.20330000  1
  O  O871  1  0.41789000  0.79670000  0.70330000  1
  O  O872  1  0.58211000  0.20330000  0.29670000  1
  O  O873  1  0.58211000  0.29670000  0.79670000  1
  O  O874  1  0.60805000  0.14366000  0.25610000  1
  O  O875  1  0.60805000  0.35634000  0.75610000  1
  O  O876  1  0.64366000  0.24390000  0.39195000  1
  O  O877  1  0.64366000  0.25610000  0.89195000  1
  O  O878  1  0.65740000  0.18479000  0.79250000  1
  O  O879  1  0.65740000  0.31521000  0.29250000  1
  O  O880  1  0.67257000  0.17257000  0.32743000  1
  O  O881  1  0.67257000  0.32743000  0.82743000  1
  O  O882  1  0.67526000  0.22326000  0.25100000  1
  O  O883  1  0.67526000  0.27674000  0.75100000  1
  O  O884  1  0.68060000  0.74990000  0.28020000  1
  O  O885  1  0.68060000  0.75010000  0.78020000  1
  O  O886  1  0.68479000  0.70750000  0.34260000  1
  O  O887  1  0.68479000  0.79250000  0.84260000  1
  O  O888  1  0.70330000  0.08211000  0.29670000  1
  O  O889  1  0.70330000  0.20330000  0.41789000  1
  O  O890  1  0.70330000  0.29670000  0.91789000  1
  O  O891  1  0.70330000  0.41789000  0.79670000  1
  O  O892  1  0.70750000  0.15740000  0.18479000  1
  O  O893  1  0.70750000  0.34260000  0.68479000  1
  O  O894  1  0.71980000  0.18060000  0.75010000  1
  O  O895  1  0.71980000  0.31940000  0.25010000  1
  O  O896  1  0.72326000  0.24900000  0.32474000  1
  O  O897  1  0.72326000  0.25100000  0.82474000  1
  O  O898  1  0.74390000  0.10805000  0.35634000  1
  O  O899  1  0.74390000  0.39195000  0.85634000  1
  O  O900  1  0.74900000  0.17526000  0.27674000  1
  O  O901  1  0.74900000  0.32474000  0.77674000  1
  O  O902  1  0.74990000  0.21980000  0.18060000  1
  O  O903  1  0.74990000  0.28020000  0.68060000  1
  O  O904  1  0.75010000  0.71980000  0.18060000  1
  O  O905  1  0.75010000  0.78020000  0.68060000  1
  O  O906  1  0.75100000  0.67526000  0.27674000  1
  O  O907  1  0.75100000  0.82474000  0.77674000  1
  O  O908  1  0.75610000  0.60805000  0.35634000  1
  O  O909  1  0.75610000  0.89195000  0.85634000  1
  O  O910  1  0.77674000  0.74900000  0.32474000  1
  O  O911  1  0.77674000  0.75100000  0.82474000  1
  O  O912  1  0.78020000  0.68060000  0.75010000  1
  O  O913  1  0.78020000  0.81940000  0.25010000  1
  O  O914  1  0.79250000  0.65740000  0.18479000  1
  O  O915  1  0.79250000  0.84260000  0.68479000  1
  O  O916  1  0.79670000  0.58211000  0.29670000  1
  O  O917  1  0.79670000  0.70330000  0.41789000  1
  O  O918  1  0.79670000  0.79670000  0.91789000  1
  O  O919  1  0.79670000  0.91789000  0.79670000  1
  O  O920  1  0.81521000  0.20750000  0.34260000  1
  O  O921  1  0.81521000  0.29250000  0.84260000  1
  O  O922  1  0.81940000  0.24990000  0.28020000  1
  O  O923  1  0.81940000  0.25010000  0.78020000  1
  O  O924  1  0.82474000  0.72326000  0.25100000  1
  O  O925  1  0.82474000  0.77674000  0.75100000  1
  O  O926  1  0.82743000  0.67257000  0.32743000  1
  O  O927  1  0.82743000  0.82743000  0.82743000  1
  O  O928  1  0.84260000  0.68479000  0.79250000  1
  O  O929  1  0.84260000  0.81521000  0.29250000  1
  O  O930  1  0.85634000  0.74390000  0.39195000  1
  O  O931  1  0.85634000  0.75610000  0.89195000  1
  O  O932  1  0.89195000  0.64366000  0.25610000  1
  O  O933  1  0.89195000  0.85634000  0.75610000  1
  O  O934  1  0.91789000  0.70330000  0.29670000  1
  O  O935  1  0.91789000  0.79670000  0.79670000  1
