# generated using pymatgen
data_SmCuH8C14(NO4)2
_symmetry_space_group_name_H-M   'P 1'
_cell_length_a   9.23330000
_cell_length_b   9.55030000
_cell_length_c   21.58500000
_cell_angle_alpha   90.00000000
_cell_angle_beta   90.00000000
_cell_angle_gamma   116.00600000
_symmetry_Int_Tables_number   1
_chemical_formula_structural   SmCuH8C14(NO4)2
_chemical_formula_sum   'Sm4 Cu4 H32 C56 N8 O32'
_cell_volume   1710.66124247
_cell_formula_units_Z   4
loop_
 _symmetry_equiv_pos_site_id
 _symmetry_equiv_pos_as_xyz
  1  'x, y, z'
loop_
 _atom_site_type_symbol
 _atom_site_label
 _atom_site_symmetry_multiplicity
 _atom_site_fract_x
 _atom_site_fract_y
 _atom_site_fract_z
 _atom_site_occupancy
  Sm  Sm0  1  0.12341000  0.85922000  0.50856000  1
  Sm  Sm1  1  0.37659000  0.14078000  0.00856000  1
  Sm  Sm2  1  0.62341000  0.85922000  0.99144000  1
  Sm  Sm3  1  0.87659000  0.14078000  0.49144000  1
  Cu  Cu4  1  0.04086000  0.19116000  0.14545000  1
  Cu  Cu5  1  0.45914000  0.80884000  0.64545000  1
  Cu  Cu6  1  0.54086000  0.19116000  0.35455000  1
  Cu  Cu7  1  0.95914000  0.80884000  0.85455000  1
  H  H8  1  0.00400000  0.84580000  0.72390000  1
  H  H9  1  0.06080000  0.29690000  0.93010000  1
  H  H10  1  0.10890000  0.81730000  0.33360000  1
  H  H11  1  0.12520000  0.92650000  0.15520000  1
  H  H12  1  0.14720000  0.77190000  0.23100000  1
  H  H13  1  0.20630000  0.70320000  0.84360000  1
  H  H14  1  0.20750000  0.47080000  0.07030000  1
  H  H15  1  0.24420000  0.50070000  0.37480000  1
  H  H16  1  0.25580000  0.49930000  0.87480000  1
  H  H17  1  0.29250000  0.52920000  0.57030000  1
  H  H18  1  0.29370000  0.29680000  0.34360000  1
  H  H19  1  0.35280000  0.22810000  0.73100000  1
  H  H20  1  0.37480000  0.07350000  0.65520000  1
  H  H21  1  0.39110000  0.18270000  0.83360000  1
  H  H22  1  0.43920000  0.70310000  0.43010000  1
  H  H23  1  0.49600000  0.15420000  0.22390000  1
  H  H24  1  0.50400000  0.84580000  0.77610000  1
  H  H25  1  0.56080000  0.29690000  0.56990000  1
  H  H26  1  0.60890000  0.81730000  0.16640000  1
  H  H27  1  0.62520000  0.92650000  0.34480000  1
  H  H28  1  0.64720000  0.77190000  0.26900000  1
  H  H29  1  0.70630000  0.70320000  0.65640000  1
  H  H30  1  0.70750000  0.47080000  0.42970000  1
  H  H31  1  0.74420000  0.50070000  0.12520000  1
  H  H32  1  0.75580000  0.49930000  0.62520000  1
  H  H33  1  0.79250000  0.52920000  0.92970000  1
  H  H34  1  0.79370000  0.29680000  0.15640000  1
  H  H35  1  0.85280000  0.22810000  0.76900000  1
  H  H36  1  0.87480000  0.07350000  0.84480000  1
  H  H37  1  0.89110000  0.18270000  0.66640000  1
  H  H38  1  0.93920000  0.70310000  0.06990000  1
  H  H39  1  0.99600000  0.15420000  0.27610000  1
  C  C40  1  0.00350000  0.97720000  0.96630000  1
  C  C41  1  0.01120000  0.50800000  0.46450000  1
  C  C42  1  0.01140000  0.02730000  0.37950000  1
  C  C43  1  0.02910000  0.07750000  0.26700000  1
  C  C44  1  0.04410000  0.38260000  0.91860000  1
  C  C45  1  0.04600000  0.99150000  0.31550000  1
  C  C46  1  0.09410000  0.87630000  0.30210000  1
  C  C47  1  0.09620000  0.60960000  0.06510000  1
  C  C48  1  0.10350000  0.94300000  0.19590000  1
  C  C49  1  0.11500000  0.47890000  0.08270000  1
  C  C50  1  0.11930000  0.85140000  0.24130000  1
  C  C51  1  0.12960000  0.62470000  0.86750000  1
  C  C52  1  0.15920000  0.50180000  0.88520000  1
  C  C53  1  0.22810000  0.74050000  0.03060000  1
  C  C54  1  0.27190000  0.25950000  0.53060000  1
  C  C55  1  0.34080000  0.49820000  0.38520000  1
  C  C56  1  0.37040000  0.37530000  0.36750000  1
  C  C57  1  0.38070000  0.14860000  0.74130000  1
  C  C58  1  0.38500000  0.52110000  0.58270000  1
  C  C59  1  0.39650000  0.05700000  0.69590000  1
  C  C60  1  0.40380000  0.39040000  0.56510000  1
  C  C61  1  0.40590000  0.12370000  0.80210000  1
  C  C62  1  0.45400000  0.00850000  0.81550000  1
  C  C63  1  0.45590000  0.61740000  0.41860000  1
  C  C64  1  0.47090000  0.92250000  0.76700000  1
  C  C65  1  0.48860000  0.97270000  0.87950000  1
  C  C66  1  0.48880000  0.49200000  0.96450000  1
  C  C67  1  0.49650000  0.02280000  0.46630000  1
  C  C68  1  0.50350000  0.97720000  0.53370000  1
  C  C69  1  0.51120000  0.50800000  0.03550000  1
  C  C70  1  0.51140000  0.02730000  0.12050000  1
  C  C71  1  0.52910000  0.07750000  0.23300000  1
  C  C72  1  0.54410000  0.38260000  0.58140000  1
  C  C73  1  0.54600000  0.99150000  0.18450000  1
  C  C74  1  0.59410000  0.87630000  0.19790000  1
  C  C75  1  0.59620000  0.60960000  0.43490000  1
  C  C76  1  0.60350000  0.94300000  0.30410000  1
  C  C77  1  0.61500000  0.47890000  0.41730000  1
  C  C78  1  0.61930000  0.85140000  0.25870000  1
  C  C79  1  0.62960000  0.62470000  0.63250000  1
  C  C80  1  0.65920000  0.50180000  0.61480000  1
  C  C81  1  0.72810000  0.74050000  0.46940000  1
  C  C82  1  0.77190000  0.25950000  0.96940000  1
  C  C83  1  0.84080000  0.49820000  0.11480000  1
  C  C84  1  0.87040000  0.37530000  0.13250000  1
  C  C85  1  0.88070000  0.14860000  0.75870000  1
  C  C86  1  0.88500000  0.52110000  0.91730000  1
  C  C87  1  0.89650000  0.05700000  0.80410000  1
  C  C88  1  0.90380000  0.39040000  0.93490000  1
  C  C89  1  0.90590000  0.12370000  0.69790000  1
  C  C90  1  0.95400000  0.00850000  0.68450000  1
  C  C91  1  0.95590000  0.61740000  0.08140000  1
  C  C92  1  0.97090000  0.92250000  0.73300000  1
  C  C93  1  0.98860000  0.97270000  0.62050000  1
  C  C94  1  0.98880000  0.49200000  0.53550000  1
  C  C95  1  0.99650000  0.02280000  0.03370000  1
  N  N96  1  0.00500000  0.36310000  0.11690000  1
  N  N97  1  0.05770000  0.05680000  0.20750000  1
  N  N98  1  0.44230000  0.94320000  0.70750000  1
  N  N99  1  0.49500000  0.63690000  0.61690000  1
  N  N100  1  0.50500000  0.36310000  0.38310000  1
  N  N101  1  0.55770000  0.05680000  0.29250000  1
  N  N102  1  0.94230000  0.94320000  0.79250000  1
  N  N103  1  0.99500000  0.63690000  0.88310000  1
  O  O104  1  0.05040000  0.96830000  0.42451000  1
  O  O105  1  0.05120000  0.61540000  0.56628000  1
  O  O106  1  0.05690000  0.88550000  0.61438000  1
  O  O107  1  0.09110000  0.64210000  0.44314000  1
  O  O108  1  0.12680000  0.11780000  0.05786000  1
  O  O109  1  0.13660000  0.03770000  0.93933000  1
  O  O110  1  0.16400000  0.28730000  0.50580000  1
  O  O111  1  0.22000000  0.86790000  0.03038000  1
  O  O112  1  0.28000000  0.13210000  0.53038000  1
  O  O113  1  0.33600000  0.71270000  0.00580000  1
  O  O114  1  0.36340000  0.96230000  0.43933000  1
  O  O115  1  0.37320000  0.88220000  0.55786000  1
  O  O116  1  0.40890000  0.35790000  0.94314000  1
  O  O117  1  0.44310000  0.11450000  0.11438000  1
  O  O118  1  0.44880000  0.38460000  0.06628000  1
  O  O119  1  0.44960000  0.03170000  0.92451000  1
  O  O120  1  0.55040000  0.96830000  0.07549000  1
  O  O121  1  0.55120000  0.61540000  0.93372000  1
  O  O122  1  0.55690000  0.88550000  0.88562000  1
  O  O123  1  0.59110000  0.64210000  0.05686000  1
  O  O124  1  0.62680000  0.11780000  0.44214000  1
  O  O125  1  0.63660000  0.03770000  0.56067000  1
  O  O126  1  0.66400000  0.28730000  0.99420000  1
  O  O127  1  0.72000000  0.86790000  0.46962000  1
  O  O128  1  0.78000000  0.13210000  0.96962000  1
  O  O129  1  0.83600000  0.71270000  0.49420000  1
  O  O130  1  0.86340000  0.96230000  0.06067000  1
  O  O131  1  0.87320000  0.88220000  0.94214000  1
  O  O132  1  0.90890000  0.35790000  0.55686000  1
  O  O133  1  0.94310000  0.11450000  0.38562000  1
  O  O134  1  0.94880000  0.38460000  0.43372000  1
  O  O135  1  0.94960000  0.03170000  0.57549000  1
