# generated using pymatgen
data_Ni2H39C63(N2O)6
_symmetry_space_group_name_H-M   'P 1'
_cell_length_a   13.84600000
_cell_length_b   16.95400000
_cell_length_c   16.95400000
_cell_angle_alpha   120.00000000
_cell_angle_beta   90.00000000
_cell_angle_gamma   90.00000000
_symmetry_Int_Tables_number   1
_chemical_formula_structural   Ni2H39C63(N2O)6
_chemical_formula_sum   'Ni4 H78 C126 N24 O12'
_cell_volume   3446.66692519
_cell_formula_units_Z   2
loop_
 _symmetry_equiv_pos_site_id
 _symmetry_equiv_pos_as_xyz
  1  'x, y, z'
loop_
 _atom_site_type_symbol
 _atom_site_label
 _atom_site_symmetry_multiplicity
 _atom_site_fract_x
 _atom_site_fract_y
 _atom_site_fract_z
 _atom_site_occupancy
  Ni  Ni0  1  0.10173000  0.66666667  0.33333333  1
  Ni  Ni1  1  0.39827000  0.66666667  0.33333333  1
  Ni  Ni2  1  0.60173000  0.33333333  0.66666667  1
  Ni  Ni3  1  0.89827000  0.33333333  0.66666667  1
  H  H4  1  0.05530000  0.22960000  0.98450000  1
  H  H5  1  0.05530000  0.01550000  0.24510000  1
  H  H6  1  0.05530000  0.75490000  0.77040000  1
  H  H7  1  0.06390000  0.34640000  0.32130000  1
  H  H8  1  0.06390000  0.97490000  0.65360000  1
  H  H9  1  0.06390000  0.67870000  0.02510000  1
  H  H10  1  0.08760000  0.36460000  0.78330000  1
  H  H11  1  0.08760000  0.21670000  0.58130000  1
  H  H12  1  0.08760000  0.41870000  0.63540000  1
  H  H13  1  0.11200000  0.49470000  0.42790000  1
  H  H14  1  0.11200000  0.93320000  0.50530000  1
  H  H15  1  0.11200000  0.57210000  0.06680000  1
  H  H16  1  0.15260000  0.43710000  0.22280000  1
  H  H17  1  0.15260000  0.78570000  0.56290000  1
  H  H18  1  0.15260000  0.77720000  0.21430000  1
  H  H19  1  0.16360000  0.81650000  0.71230000  1
  H  H20  1  0.16360000  0.28770000  0.10420000  1
  H  H21  1  0.16360000  0.89580000  0.18350000  1
  H  H22  1  0.25000000  0.17010000  0.58505000  1
  H  H23  1  0.25000000  0.41495000  0.82990000  1
  H  H24  1  0.25000000  0.41495000  0.58505000  1
  H  H25  1  0.33640000  0.28770000  0.18350000  1
  H  H26  1  0.33640000  0.89580000  0.71230000  1
  H  H27  1  0.33640000  0.81650000  0.10420000  1
  H  H28  1  0.34740000  0.77720000  0.56290000  1
  H  H29  1  0.34740000  0.43710000  0.21430000  1
  H  H30  1  0.34740000  0.78570000  0.22280000  1
  H  H31  1  0.38800000  0.57210000  0.50530000  1
  H  H32  1  0.38800000  0.49470000  0.06680000  1
  H  H33  1  0.38800000  0.93320000  0.42790000  1
  H  H34  1  0.41240000  0.21670000  0.63540000  1
  H  H35  1  0.41240000  0.41870000  0.78330000  1
  H  H36  1  0.41240000  0.36460000  0.58130000  1
  H  H37  1  0.43610000  0.67870000  0.65360000  1
  H  H38  1  0.43610000  0.34640000  0.02510000  1
  H  H39  1  0.43610000  0.97490000  0.32130000  1
  H  H40  1  0.44470000  0.01550000  0.77040000  1
  H  H41  1  0.44470000  0.75490000  0.98450000  1
  H  H42  1  0.44470000  0.22960000  0.24510000  1
  H  H43  1  0.55530000  0.77040000  0.75490000  1
  H  H44  1  0.55530000  0.24510000  0.01550000  1
  H  H45  1  0.55530000  0.98450000  0.22960000  1
  H  H46  1  0.56390000  0.02510000  0.67870000  1
  H  H47  1  0.56390000  0.65360000  0.97490000  1
  H  H48  1  0.56390000  0.32130000  0.34640000  1
  H  H49  1  0.58760000  0.63540000  0.41870000  1
  H  H50  1  0.58760000  0.58130000  0.21670000  1
  H  H51  1  0.58760000  0.78330000  0.36460000  1
  H  H52  1  0.61200000  0.06680000  0.57210000  1
  H  H53  1  0.61200000  0.50530000  0.93320000  1
  H  H54  1  0.61200000  0.42790000  0.49470000  1
  H  H55  1  0.65260000  0.21430000  0.77720000  1
  H  H56  1  0.65260000  0.56290000  0.78570000  1
  H  H57  1  0.65260000  0.22280000  0.43710000  1
  H  H58  1  0.66360000  0.18350000  0.89580000  1
  H  H59  1  0.66360000  0.10420000  0.28770000  1
  H  H60  1  0.66360000  0.71230000  0.81650000  1
  H  H61  1  0.75000000  0.58505000  0.41495000  1
  H  H62  1  0.75000000  0.58505000  0.17010000  1
  H  H63  1  0.75000000  0.82990000  0.41495000  1
  H  H64  1  0.83640000  0.10420000  0.81650000  1
  H  H65  1  0.83640000  0.71230000  0.89580000  1
  H  H66  1  0.83640000  0.18350000  0.28770000  1
  H  H67  1  0.84740000  0.22280000  0.78570000  1
  H  H68  1  0.84740000  0.21430000  0.43710000  1
  H  H69  1  0.84740000  0.56290000  0.77720000  1
  H  H70  1  0.88800000  0.42790000  0.93320000  1
  H  H71  1  0.88800000  0.06680000  0.49470000  1
  H  H72  1  0.88800000  0.50530000  0.57210000  1
  H  H73  1  0.91240000  0.58130000  0.36460000  1
  H  H74  1  0.91240000  0.78330000  0.41870000  1
  H  H75  1  0.91240000  0.63540000  0.21670000  1
  H  H76  1  0.93610000  0.32130000  0.97490000  1
  H  H77  1  0.93610000  0.02510000  0.34640000  1
  H  H78  1  0.93610000  0.65360000  0.67870000  1
  H  H79  1  0.94470000  0.24510000  0.22960000  1
  H  H80  1  0.94470000  0.98450000  0.75490000  1
  H  H81  1  0.94470000  0.77040000  0.01550000  1
  C  C82  1  0.02100000  0.02360000  0.67930000  1
  C  C83  1  0.02100000  0.65570000  0.97640000  1
  C  C84  1  0.02100000  0.32070000  0.34430000  1
  C  C85  1  0.02540000  0.09340000  0.65920000  1
  C  C86  1  0.02540000  0.56580000  0.90660000  1
  C  C87  1  0.02540000  0.34080000  0.43420000  1
  C  C88  1  0.03850000  0.69864000  0.53024000  1
  C  C89  1  0.03850000  0.46976000  0.16840000  1
  C  C90  1  0.03850000  0.83160000  0.30136000  1
  C  C91  1  0.05050000  0.73950000  0.70960000  1
  C  C92  1  0.05050000  0.29040000  0.02990000  1
  C  C93  1  0.05050000  0.97010000  0.26050000  1
  C  C94  1  0.05757000  0.19060000  0.61182000  1
  C  C95  1  0.05757000  0.42122000  0.80940000  1
  C  C96  1  0.05757000  0.38818000  0.57878000  1
  C  C97  1  0.11020000  0.75910000  0.58530000  1
  C  C98  1  0.11020000  0.41470000  0.17380000  1
  C  C99  1  0.11020000  0.82620000  0.24090000  1
  C  C100  1  0.11550000  0.77770000  0.67460000  1
  C  C101  1  0.11550000  0.32540000  0.10310000  1
  C  C102  1  0.11550000  0.89690000  0.22230000  1
  C  C103  1  0.16730000  0.49398000  0.45864000  1
  C  C104  1  0.16730000  0.96466000  0.50602000  1
  C  C105  1  0.16730000  0.54136000  0.03534000  1
  C  C106  1  0.16885000  0.05853000  0.55373000  1
  C  C107  1  0.16885000  0.49520000  0.94147000  1
  C  C108  1  0.16885000  0.44627000  0.50480000  1
  C  C109  1  0.25000000  0.54120000  0.45880000  1
  C  C110  1  0.25000000  0.59240000  0.40760000  1
  C  C111  1  0.25000000  0.59240000  0.18480000  1
  C  C112  1  0.25000000  0.81520000  0.40760000  1
  C  C113  1  0.25000000  0.54120000  0.08240000  1
  C  C114  1  0.25000000  0.91760000  0.45880000  1
  C  C115  1  0.25000000  0.10680000  0.55340000  1
  C  C116  1  0.25000000  0.44660000  0.89320000  1
  C  C117  1  0.25000000  0.44660000  0.55340000  1
  C  C118  1  0.33115000  0.44627000  0.94147000  1
  C  C119  1  0.33115000  0.05853000  0.50480000  1
  C  C120  1  0.33115000  0.49520000  0.55373000  1
  C  C121  1  0.33270000  0.54136000  0.50602000  1
  C  C122  1  0.33270000  0.49398000  0.03534000  1
  C  C123  1  0.33270000  0.96466000  0.45864000  1
  C  C124  1  0.38450000  0.32540000  0.22230000  1
  C  C125  1  0.38450000  0.89690000  0.67460000  1
  C  C126  1  0.38450000  0.77770000  0.10310000  1
  C  C127  1  0.38980000  0.41470000  0.24090000  1
  C  C128  1  0.38980000  0.82620000  0.58530000  1
  C  C129  1  0.38980000  0.75910000  0.17380000  1
  C  C130  1  0.44243000  0.38818000  0.80940000  1
  C  C131  1  0.44243000  0.19060000  0.57878000  1
  C  C132  1  0.44243000  0.42122000  0.61182000  1
  C  C133  1  0.44950000  0.29040000  0.26050000  1
  C  C134  1  0.44950000  0.97010000  0.70960000  1
  C  C135  1  0.44950000  0.73950000  0.02990000  1
  C  C136  1  0.46150000  0.46976000  0.30136000  1
  C  C137  1  0.46150000  0.83160000  0.53024000  1
  C  C138  1  0.46150000  0.69864000  0.16840000  1
  C  C139  1  0.47460000  0.34080000  0.90660000  1
  C  C140  1  0.47460000  0.09340000  0.43420000  1
  C  C141  1  0.47460000  0.56580000  0.65920000  1
  C  C142  1  0.47900000  0.32070000  0.97640000  1
  C  C143  1  0.47900000  0.02360000  0.34430000  1
  C  C144  1  0.47900000  0.65570000  0.67930000  1
  C  C145  1  0.52100000  0.34430000  0.32070000  1
  C  C146  1  0.52100000  0.97640000  0.65570000  1
  C  C147  1  0.52100000  0.67930000  0.02360000  1
  C  C148  1  0.52540000  0.43420000  0.34080000  1
  C  C149  1  0.52540000  0.90660000  0.56580000  1
  C  C150  1  0.52540000  0.65920000  0.09340000  1
  C  C151  1  0.53850000  0.30136000  0.83160000  1
  C  C152  1  0.53850000  0.16840000  0.46976000  1
  C  C153  1  0.53850000  0.53024000  0.69864000  1
  C  C154  1  0.55050000  0.26050000  0.97010000  1
  C  C155  1  0.55050000  0.02990000  0.29040000  1
  C  C156  1  0.55050000  0.70960000  0.73950000  1
  C  C157  1  0.55757000  0.57878000  0.38818000  1
  C  C158  1  0.55757000  0.80940000  0.42122000  1
  C  C159  1  0.55757000  0.61182000  0.19060000  1
  C  C160  1  0.61020000  0.24090000  0.82620000  1
  C  C161  1  0.61020000  0.17380000  0.41470000  1
  C  C162  1  0.61020000  0.58530000  0.75910000  1
  C  C163  1  0.61550000  0.22230000  0.89690000  1
  C  C164  1  0.61550000  0.10310000  0.32540000  1
  C  C165  1  0.61550000  0.67460000  0.77770000  1
  C  C166  1  0.66730000  0.03534000  0.54136000  1
  C  C167  1  0.66730000  0.50602000  0.96466000  1
  C  C168  1  0.66730000  0.45864000  0.49398000  1
  C  C169  1  0.66885000  0.50480000  0.44627000  1
  C  C170  1  0.66885000  0.94147000  0.49520000  1
  C  C171  1  0.66885000  0.55373000  0.05853000  1
  C  C172  1  0.75000000  0.55340000  0.44660000  1
  C  C173  1  0.75000000  0.55340000  0.10680000  1
  C  C174  1  0.75000000  0.89320000  0.44660000  1
  C  C175  1  0.75000000  0.08240000  0.54120000  1
  C  C176  1  0.75000000  0.45880000  0.91760000  1
  C  C177  1  0.75000000  0.18480000  0.59240000  1
  C  C178  1  0.75000000  0.40760000  0.81520000  1
  C  C179  1  0.75000000  0.40760000  0.59240000  1
  C  C180  1  0.75000000  0.45880000  0.54120000  1
  C  C181  1  0.83115000  0.55373000  0.49520000  1
  C  C182  1  0.83115000  0.50480000  0.05853000  1
  C  C183  1  0.83115000  0.94147000  0.44627000  1
  C  C184  1  0.83270000  0.45864000  0.96466000  1
  C  C185  1  0.83270000  0.03534000  0.49398000  1
  C  C186  1  0.83270000  0.50602000  0.54136000  1
  C  C187  1  0.88450000  0.10310000  0.77770000  1
  C  C188  1  0.88450000  0.67460000  0.89690000  1
  C  C189  1  0.88450000  0.22230000  0.32540000  1
  C  C190  1  0.88980000  0.17380000  0.75910000  1
  C  C191  1  0.88980000  0.58530000  0.82620000  1
  C  C192  1  0.88980000  0.24090000  0.41470000  1
  C  C193  1  0.94243000  0.61182000  0.42122000  1
  C  C194  1  0.94243000  0.57878000  0.19060000  1
  C  C195  1  0.94243000  0.80940000  0.38818000  1
  C  C196  1  0.94950000  0.02990000  0.73950000  1
  C  C197  1  0.94950000  0.70960000  0.97010000  1
  C  C198  1  0.94950000  0.26050000  0.29040000  1
  C  C199  1  0.96150000  0.16840000  0.69864000  1
  C  C200  1  0.96150000  0.53024000  0.83160000  1
  C  C201  1  0.96150000  0.30136000  0.46976000  1
  C  C202  1  0.97460000  0.65920000  0.56580000  1
  C  C203  1  0.97460000  0.43420000  0.09340000  1
  C  C204  1  0.97460000  0.90660000  0.34080000  1
  C  C205  1  0.97900000  0.67930000  0.65570000  1
  C  C206  1  0.97900000  0.34430000  0.02360000  1
  C  C207  1  0.97900000  0.97640000  0.32070000  1
  N  N208  1  0.01594000  0.66690000  0.43883000  1
  N  N209  1  0.01594000  0.56117000  0.22807000  1
  N  N210  1  0.01594000  0.77193000  0.33310000  1
  N  N211  1  0.08583000  0.10945000  0.60346000  1
  N  N212  1  0.08583000  0.49401000  0.89055000  1
  N  N213  1  0.08583000  0.39654000  0.50599000  1
  N  N214  1  0.41417000  0.39654000  0.89055000  1
  N  N215  1  0.41417000  0.10945000  0.50599000  1
  N  N216  1  0.41417000  0.49401000  0.60346000  1
  N  N217  1  0.48406000  0.56117000  0.33310000  1
  N  N218  1  0.48406000  0.77193000  0.43883000  1
  N  N219  1  0.48406000  0.66690000  0.22807000  1
  N  N220  1  0.51594000  0.33310000  0.77193000  1
  N  N221  1  0.51594000  0.22807000  0.56117000  1
  N  N222  1  0.51594000  0.43883000  0.66690000  1
  N  N223  1  0.58583000  0.50599000  0.39654000  1
  N  N224  1  0.58583000  0.89055000  0.49401000  1
  N  N225  1  0.58583000  0.60346000  0.10945000  1
  N  N226  1  0.91417000  0.60346000  0.49401000  1
  N  N227  1  0.91417000  0.50599000  0.10945000  1
  N  N228  1  0.91417000  0.89055000  0.39654000  1
  N  N229  1  0.98406000  0.22807000  0.66690000  1
  N  N230  1  0.98406000  0.43883000  0.77193000  1
  N  N231  1  0.98406000  0.33310000  0.56117000  1
  O  O232  1  0.18064000  0.57642000  0.35331000  1
  O  O233  1  0.18064000  0.77689000  0.42358000  1
  O  O234  1  0.18064000  0.64669000  0.22311000  1
  O  O235  1  0.31936000  0.64669000  0.42358000  1
  O  O236  1  0.31936000  0.57642000  0.22311000  1
  O  O237  1  0.31936000  0.77689000  0.35331000  1
  O  O238  1  0.68064000  0.22311000  0.64669000  1
  O  O239  1  0.68064000  0.42358000  0.77689000  1
  O  O240  1  0.68064000  0.35331000  0.57642000  1
  O  O241  1  0.81936000  0.35331000  0.77689000  1
  O  O242  1  0.81936000  0.22311000  0.57642000  1
  O  O243  1  0.81936000  0.42358000  0.64669000  1
