# generated using pymatgen
data_EuH10(C11O4)2
_symmetry_space_group_name_H-M   'P 1'
_cell_length_a   10.98400000
_cell_length_b   16.10100000
_cell_length_c   19.69200000
_cell_angle_alpha   74.14900000
_cell_angle_beta   74.03500000
_cell_angle_gamma   72.05400000
_symmetry_Int_Tables_number   1
_chemical_formula_structural   EuH10(C11O4)2
_chemical_formula_sum   'Eu4 H40 C88 O32'
_cell_volume   3117.07292153
_cell_formula_units_Z   4
loop_
 _symmetry_equiv_pos_site_id
 _symmetry_equiv_pos_as_xyz
  1  'x, y, z'
loop_
 _atom_site_type_symbol
 _atom_site_label
 _atom_site_symmetry_multiplicity
 _atom_site_fract_x
 _atom_site_fract_y
 _atom_site_fract_z
 _atom_site_occupancy
  Eu  Eu0  1  0.05620000  0.82372000  0.77342000  1
  Eu  Eu1  1  0.39854000  0.90186000  0.23900000  1
  Eu  Eu2  1  0.60146000  0.09814000  0.76100000  1
  Eu  Eu3  1  0.94380000  0.17628000  0.22658000  1
  H  H4  1  0.01310000  0.61920000  0.40620000  1
  H  H5  1  0.04470000  0.41830000  0.77570000  1
  H  H6  1  0.04930000  0.63600000  0.61280000  1
  H  H7  1  0.06540000  0.49110000  0.60260000  1
  H  H8  1  0.07180000  0.43590000  0.22880000  1
  H  H9  1  0.15990000  0.77250000  0.24260000  1
  H  H10  1  0.16160000  0.29480000  0.26860000  1
  H  H11  1  0.16950000  0.30150000  0.73450000  1
  H  H12  1  0.18950000  0.04570000  0.74540000  1
  H  H13  1  0.19430000  0.66260000  0.40050000  1
  H  H14  1  0.23610000  0.82770000  0.50930000  1
  H  H15  1  0.25430000  0.36300000  0.08520000  1
  H  H16  1  0.25560000  0.63510000  0.26930000  1
  H  H17  1  0.27700000  0.16470000  0.99380000  1
  H  H18  1  0.36880000  0.48870000  0.27250000  1
  H  H19  1  0.43680000  0.40390000  0.10540000  1
  H  H20  1  0.48010000  0.67580000  0.09540000  1
  H  H21  1  0.48680000  0.37160000  0.23820000  1
  H  H22  1  0.48730000  0.47880000  0.89090000  1
  H  H23  1  0.49490000  0.88720000  0.73830000  1
  H  H24  1  0.50510000  0.11280000  0.26170000  1
  H  H25  1  0.51270000  0.52120000  0.10910000  1
  H  H26  1  0.51320000  0.62840000  0.76180000  1
  H  H27  1  0.51990000  0.32420000  0.90460000  1
  H  H28  1  0.56320000  0.59610000  0.89460000  1
  H  H29  1  0.63120000  0.51130000  0.72750000  1
  H  H30  1  0.72300000  0.83530000  0.00620000  1
  H  H31  1  0.74440000  0.36490000  0.73070000  1
  H  H32  1  0.74570000  0.63700000  0.91480000  1
  H  H33  1  0.76390000  0.17230000  0.49070000  1
  H  H34  1  0.80570000  0.33740000  0.59950000  1
  H  H35  1  0.81050000  0.95430000  0.25460000  1
  H  H36  1  0.83050000  0.69850000  0.26550000  1
  H  H37  1  0.83840000  0.70520000  0.73140000  1
  H  H38  1  0.84010000  0.22750000  0.75740000  1
  H  H39  1  0.92820000  0.56410000  0.77120000  1
  H  H40  1  0.93460000  0.50890000  0.39740000  1
  H  H41  1  0.95070000  0.36400000  0.38720000  1
  H  H42  1  0.95530000  0.58170000  0.22430000  1
  H  H43  1  0.98690000  0.38080000  0.59380000  1
  C  C44  1  0.00550000  0.12590000  0.75100000  1
  C  C45  1  0.00970000  0.57050000  0.44450000  1
  C  C46  1  0.01160000  0.71840000  0.25140000  1
  C  C47  1  0.03780000  0.56350000  0.23530000  1
  C  C48  1  0.04040000  0.49490000  0.56020000  1
  C  C49  1  0.05520000  0.56690000  0.50360000  1
  C  C50  1  0.05920000  0.94650000  0.24400000  1
  C  C51  1  0.06980000  0.78590000  0.24700000  1
  C  C52  1  0.08790000  0.62480000  0.24960000  1
  C  C53  1  0.09430000  0.66510000  0.57030000  1
  C  C54  1  0.10930000  0.47550000  0.23740000  1
  C  C55  1  0.11130000  0.63820000  0.50630000  1
  C  C56  1  0.12240000  0.76220000  0.64240000  1
  C  C57  1  0.12720000  0.25750000  0.74000000  1
  C  C58  1  0.14050000  0.10420000  0.74530000  1
  C  C59  1  0.14300000  0.73470000  0.57230000  1
  C  C60  1  0.14370000  0.23160000  0.10860000  1
  C  C61  1  0.17990000  0.68090000  0.44360000  1
  C  C62  1  0.20140000  0.17030000  0.73950000  1
  C  C63  1  0.20690000  0.77930000  0.50900000  1
  C  C64  1  0.21680000  0.59530000  0.26200000  1
  C  C65  1  0.22770000  0.75170000  0.44460000  1
  C  C66  1  0.23310000  0.44440000  0.25150000  1
  C  C67  1  0.25080000  0.25890000  0.04910000  1
  C  C68  1  0.25200000  0.28110000  0.26310000  1
  C  C69  1  0.25640000  0.11920000  0.27110000  1
  C  C70  1  0.28480000  0.50700000  0.26340000  1
  C  C71  1  0.29480000  0.33040000  0.04910000  1
  C  C72  1  0.29760000  0.79800000  0.37480000  1
  C  C73  1  0.30700000  0.21250000  0.99440000  1
  C  C74  1  0.30980000  0.34930000  0.25450000  1
  C  C75  1  0.32310000  0.19240000  0.26400000  1
  C  C76  1  0.33620000  0.78300000  0.75860000  1
  C  C77  1  0.34490000  0.14520000  0.73580000  1
  C  C78  1  0.39890000  0.35510000  0.99600000  1
  C  C79  1  0.40960000  0.23710000  0.93950000  1
  C  C80  1  0.44440000  0.32690000  0.24610000  1
  C  C81  1  0.45000000  0.42960000  0.99700000  1
  C  C82  1  0.45250000  0.30770000  0.94140000  1
  C  C83  1  0.45650000  0.17170000  0.25880000  1
  C  C84  1  0.46140000  0.44270000  0.06270000  1
  C  C85  1  0.46910000  0.18750000  0.88040000  1
  C  C86  1  0.48190000  0.76150000  0.75070000  1
  C  C87  1  0.49110000  0.48680000  0.93520000  1
  C  C88  1  0.50890000  0.51320000  0.06480000  1
  C  C89  1  0.51810000  0.23850000  0.24930000  1
  C  C90  1  0.53090000  0.81250000  0.11960000  1
  C  C91  1  0.53860000  0.55730000  0.93730000  1
  C  C92  1  0.54350000  0.82830000  0.74120000  1
  C  C93  1  0.54750000  0.69230000  0.05860000  1
  C  C94  1  0.55000000  0.57040000  0.00300000  1
  C  C95  1  0.55560000  0.67310000  0.75390000  1
  C  C96  1  0.59040000  0.76290000  0.06050000  1
  C  C97  1  0.60110000  0.64490000  0.00400000  1
  C  C98  1  0.65510000  0.85480000  0.26420000  1
  C  C99  1  0.66380000  0.21700000  0.24140000  1
  C  C100  1  0.67690000  0.80760000  0.73600000  1
  C  C101  1  0.69020000  0.65070000  0.74550000  1
  C  C102  1  0.69300000  0.78750000  0.00560000  1
  C  C103  1  0.70240000  0.20200000  0.62520000  1
  C  C104  1  0.70520000  0.66960000  0.95090000  1
  C  C105  1  0.71520000  0.49300000  0.73660000  1
  C  C106  1  0.74360000  0.88080000  0.72890000  1
  C  C107  1  0.74800000  0.71890000  0.73690000  1
  C  C108  1  0.74920000  0.74110000  0.95090000  1
  C  C109  1  0.76690000  0.55560000  0.74850000  1
  C  C110  1  0.77230000  0.24830000  0.55540000  1
  C  C111  1  0.78320000  0.40470000  0.73800000  1
  C  C112  1  0.79310000  0.22070000  0.49100000  1
  C  C113  1  0.79860000  0.82970000  0.26050000  1
  C  C114  1  0.82010000  0.31910000  0.55640000  1
  C  C115  1  0.85630000  0.76840000  0.89140000  1
  C  C116  1  0.85700000  0.26530000  0.42770000  1
  C  C117  1  0.85950000  0.89580000  0.25470000  1
  C  C118  1  0.87280000  0.74250000  0.26000000  1
  C  C119  1  0.87760000  0.23780000  0.35760000  1
  C  C120  1  0.88870000  0.36180000  0.49370000  1
  C  C121  1  0.89070000  0.52450000  0.76260000  1
  C  C122  1  0.90570000  0.33490000  0.42970000  1
  C  C123  1  0.91210000  0.37520000  0.75040000  1
  C  C124  1  0.93020000  0.21410000  0.75300000  1
  C  C125  1  0.94080000  0.05350000  0.75600000  1
  C  C126  1  0.94480000  0.43310000  0.49640000  1
  C  C127  1  0.95960000  0.50510000  0.43980000  1
  C  C128  1  0.96220000  0.43650000  0.76470000  1
  C  C129  1  0.98840000  0.28160000  0.74860000  1
  C  C130  1  0.99030000  0.42950000  0.55550000  1
  C  C131  1  0.99450000  0.87410000  0.24900000  1
  O  O132  1  0.01070000  0.97630000  0.75700000  1
  O  O133  1  0.05430000  0.28940000  0.13940000  1
  O  O134  1  0.08830000  0.71030000  0.70110000  1
  O  O135  1  0.13340000  0.14070000  0.27780000  1
  O  O136  1  0.13620000  0.83830000  0.64120000  1
  O  O137  1  0.14340000  0.15060000  0.12690000  1
  O  O138  1  0.17910000  0.92620000  0.23910000  1
  O  O139  1  0.27210000  0.86300000  0.74830000  1
  O  O140  1  0.28050000  0.72090000  0.77340000  1
  O  O141  1  0.31950000  0.87410000  0.37150000  1
  O  O142  1  0.32660000  0.04260000  0.27330000  1
  O  O143  1  0.33210000  0.76520000  0.32000000  1
  O  O144  1  0.40360000  0.20540000  0.72030000  1
  O  O145  1  0.40390000  0.06420000  0.74940000  1
  O  O146  1  0.41700000  0.13110000  0.87210000  1
  O  O147  1  0.42420000  0.79890000  0.16150000  1
  O  O148  1  0.57580000  0.20110000  0.83850000  1
  O  O149  1  0.58300000  0.86890000  0.12790000  1
  O  O150  1  0.59610000  0.93580000  0.25060000  1
  O  O151  1  0.59640000  0.79460000  0.27970000  1
  O  O152  1  0.66790000  0.23480000  0.68000000  1
  O  O153  1  0.67340000  0.95740000  0.72670000  1
  O  O154  1  0.68050000  0.12590000  0.62850000  1
  O  O155  1  0.71950000  0.27910000  0.22660000  1
  O  O156  1  0.72790000  0.13700000  0.25170000  1
  O  O157  1  0.82090000  0.07380000  0.76090000  1
  O  O158  1  0.85660000  0.84940000  0.87310000  1
  O  O159  1  0.86380000  0.16170000  0.35880000  1
  O  O160  1  0.86660000  0.85930000  0.72220000  1
  O  O161  1  0.91170000  0.28970000  0.29890000  1
  O  O162  1  0.94570000  0.71060000  0.86060000  1
  O  O163  1  0.98930000  0.02370000  0.24300000  1
