# generated using pymatgen
data_Pr2H32C45S3O25
_symmetry_space_group_name_H-M   'P 1'
_cell_length_a   9.33790000
_cell_length_b   15.71000000
_cell_length_c   22.43100000
_cell_angle_alpha   102.47000000
_cell_angle_beta   101.71000000
_cell_angle_gamma   104.90000000
_symmetry_Int_Tables_number   1
_chemical_formula_structural   Pr2H32C45S3O25
_chemical_formula_sum   'Pr4 H64 C90 S6 O50'
_cell_volume   2986.16143786
_cell_formula_units_Z   2
loop_
 _symmetry_equiv_pos_site_id
 _symmetry_equiv_pos_as_xyz
  1  'x, y, z'
loop_
 _atom_site_type_symbol
 _atom_site_label
 _atom_site_symmetry_multiplicity
 _atom_site_fract_x
 _atom_site_fract_y
 _atom_site_fract_z
 _atom_site_occupancy
  Pr  Pr0  1  0.03597000  0.91253000  0.85751000  1
  Pr  Pr1  1  0.47746000  0.13809000  0.19810000  1
  Pr  Pr2  1  0.52254000  0.86191000  0.80190000  1
  Pr  Pr3  1  0.96403000  0.08747000  0.14249000  1
  H  H4  1  0.00820000  0.43440000  0.29390000  1
  H  H5  1  0.00930000  0.66150000  0.90760000  1
  H  H6  1  0.01500000  0.66580000  0.31610000  1
  H  H7  1  0.02260000  0.15160000  0.62960000  1
  H  H8  1  0.03930000  0.09580000  0.71740000  1
  H  H9  1  0.03940000  0.58750000  0.34610000  1
  H  H10  1  0.04640000  0.47980000  0.07430000  1
  H  H11  1  0.07220000  0.30300000  0.26390000  1
  H  H12  1  0.08170000  0.43680000  0.71960000  1
  H  H13  1  0.12440000  0.16380000  0.33270000  1
  H  H14  1  0.13400000  0.27530000  0.02310000  1
  H  H15  1  0.23940000  0.15950000  0.84220000  1
  H  H16  1  0.25270000  0.16490000  0.43150000  1
  H  H17  1  0.26580000  0.27160000  0.79060000  1
  H  H18  1  0.27860000  0.91120000  0.62550000  1
  H  H19  1  0.28370000  0.46640000  0.84900000  1
  H  H20  1  0.30210000  0.57170000  0.03870000  1
  H  H21  1  0.32030000  0.13560000  0.58470000  1
  H  H22  1  0.32950000  0.11430000  0.51420000  1
  H  H23  1  0.33540000  0.21300000  0.55020000  1
  H  H24  1  0.34180000  0.60940000  0.83210000  1
  H  H25  1  0.35630000  0.53380000  0.09560000  1
  H  H26  1  0.38150000  0.79030000  0.26240000  1
  H  H27  1  0.38310000  0.63940000  0.10690000  1
  H  H28  1  0.40410000  0.71280000  0.02600000  1
  H  H29  1  0.40530000  0.43960000  0.19890000  1
  H  H30  1  0.40570000  0.90410000  0.21180000  1
  H  H31  1  0.41680000  0.00660000  0.32930000  1
  H  H32  1  0.43950000  0.95330000  0.41920000  1
  H  H33  1  0.47890000  0.81590000  0.69050000  1
  H  H34  1  0.48090000  0.26280000  0.30370000  1
  H  H35  1  0.49670000  0.81160000  0.97010000  1
  H  H36  1  0.50330000  0.18840000  0.02990000  1
  H  H37  1  0.51910000  0.73720000  0.69630000  1
  H  H38  1  0.52110000  0.18410000  0.30950000  1
  H  H39  1  0.56050000  0.04670000  0.58080000  1
  H  H40  1  0.58320000  0.99340000  0.67070000  1
  H  H41  1  0.59430000  0.09590000  0.78820000  1
  H  H42  1  0.59470000  0.56040000  0.80110000  1
  H  H43  1  0.59590000  0.28720000  0.97400000  1
  H  H44  1  0.61690000  0.36060000  0.89310000  1
  H  H45  1  0.61850000  0.20970000  0.73760000  1
  H  H46  1  0.64370000  0.46620000  0.90440000  1
  H  H47  1  0.65820000  0.39060000  0.16790000  1
  H  H48  1  0.66460000  0.78700000  0.44980000  1
  H  H49  1  0.67050000  0.88570000  0.48580000  1
  H  H50  1  0.67970000  0.86440000  0.41530000  1
  H  H51  1  0.69790000  0.42830000  0.96130000  1
  H  H52  1  0.71630000  0.53360000  0.15100000  1
  H  H53  1  0.72140000  0.08880000  0.37450000  1
  H  H54  1  0.73420000  0.72840000  0.20940000  1
  H  H55  1  0.74730000  0.83510000  0.56850000  1
  H  H56  1  0.76060000  0.84050000  0.15780000  1
  H  H57  1  0.86600000  0.72470000  0.97690000  1
  H  H58  1  0.87560000  0.83620000  0.66730000  1
  H  H59  1  0.91830000  0.56320000  0.28040000  1
  H  H60  1  0.92780000  0.69700000  0.73610000  1
  H  H61  1  0.95360000  0.52020000  0.92570000  1
  H  H62  1  0.96060000  0.41250000  0.65390000  1
  H  H63  1  0.96070000  0.90420000  0.28260000  1
  H  H64  1  0.97740000  0.84840000  0.37040000  1
  H  H65  1  0.98500000  0.33420000  0.68390000  1
  H  H66  1  0.99070000  0.33850000  0.09240000  1
  H  H67  1  0.99180000  0.56560000  0.70610000  1
  C  C68  1  0.01690000  0.60360000  0.30710000  1
  C  C69  1  0.03180000  0.53820000  0.90680000  1
  C  C70  1  0.05660000  0.91410000  0.30980000  1
  C  C71  1  0.06500000  0.62240000  0.89600000  1
  C  C72  1  0.06650000  0.12540000  0.46350000  1
  C  C73  1  0.06650000  0.88040000  0.36220000  1
  C  C74  1  0.06870000  0.14780000  0.36090000  1
  C  C75  1  0.08670000  0.43500000  0.27420000  1
  C  C76  1  0.09210000  0.87650000  0.65790000  1
  C  C77  1  0.09370000  0.89930000  0.55570000  1
  C  C78  1  0.11420000  0.47920000  0.88980000  1
  C  C79  1  0.12580000  0.35680000  0.25660000  1
  C  C80  1  0.14580000  0.14860000  0.42020000  1
  C  C81  1  0.16360000  0.51500000  0.26250000  1
  C  C82  1  0.17210000  0.89780000  0.61490000  1
  C  C83  1  0.17380000  0.87540000  0.72190000  1
  C  C84  1  0.17500000  0.99880000  0.24160000  1
  C  C85  1  0.18110000  0.64990000  0.86770000  1
  C  C86  1  0.18820000  0.96200000  0.29810000  1
  C  C87  1  0.20800000  0.89430000  0.40190000  1
  C  C88  1  0.21280000  0.74140000  0.85430000  1
  C  C89  1  0.22750000  0.27800000  0.01390000  1
  C  C90  1  0.22920000  0.50590000  0.86120000  1
  C  C91  1  0.24530000  0.35720000  0.22810000  1
  C  C92  1  0.24750000  0.15980000  0.06960000  1
  C  C93  1  0.26310000  0.59120000  0.85070000  1
  C  C94  1  0.28150000  0.51450000  0.23470000  1
  C  C95  1  0.28480000  0.33720000  0.98210000  1
  C  C96  1  0.29160000  0.14850000  0.54480000  1
  C  C97  1  0.29860000  0.27520000  0.21170000  1
  C  C98  1  0.30930000  0.22200000  0.03240000  1
  C  C99  1  0.31600000  0.16960000  0.82130000  1
  C  C100  1  0.32440000  0.43780000  0.21750000  1
  C  C101  1  0.32820000  0.97510000  0.33810000  1
  C  C102  1  0.33230000  0.23660000  0.79110000  1
  C  C103  1  0.34360000  0.94280000  0.39170000  1
  C  C104  1  0.38000000  0.58410000  0.07750000  1
  C  C105  1  0.40130000  0.04100000  0.85510000  1
  C  C106  1  0.41470000  0.11620000  0.82080000  1
  C  C107  1  0.42280000  0.34240000  0.96630000  1
  C  C108  1  0.44780000  0.25220000  0.76130000  1
  C  C109  1  0.44790000  0.22600000  0.01740000  1
  C  C110  1  0.45650000  0.80050000  0.24080000  1
  C  C111  1  0.47130000  0.86840000  0.21090000  1
  C  C112  1  0.49620000  0.71460000  0.01570000  1
  C  C113  1  0.50380000  0.28540000  0.98430000  1
  C  C114  1  0.52870000  0.13160000  0.78910000  1
  C  C115  1  0.54350000  0.19950000  0.75920000  1
  C  C116  1  0.55210000  0.77400000  0.98260000  1
  C  C117  1  0.55220000  0.74780000  0.23870000  1
  C  C118  1  0.57720000  0.65760000  0.03370000  1
  C  C119  1  0.58530000  0.88380000  0.17920000  1
  C  C120  1  0.59870000  0.95900000  0.14490000  1
  C  C121  1  0.62000000  0.41590000  0.92250000  1
  C  C122  1  0.65640000  0.05720000  0.60830000  1
  C  C123  1  0.66770000  0.76340000  0.20890000  1
  C  C124  1  0.67180000  0.02490000  0.66190000  1
  C  C125  1  0.67560000  0.56220000  0.78250000  1
  C  C126  1  0.68400000  0.83040000  0.17870000  1
  C  C127  1  0.69070000  0.77800000  0.96760000  1
  C  C128  1  0.70140000  0.72480000  0.78830000  1
  C  C129  1  0.70840000  0.85150000  0.45520000  1
  C  C130  1  0.71520000  0.66280000  0.01790000  1
  C  C131  1  0.71850000  0.48550000  0.76530000  1
  C  C132  1  0.73690000  0.40880000  0.14930000  1
  C  C133  1  0.75250000  0.84020000  0.93040000  1
  C  C134  1  0.75470000  0.64280000  0.77190000  1
  C  C135  1  0.77080000  0.49410000  0.13880000  1
  C  C136  1  0.77250000  0.72200000  0.98610000  1
  C  C137  1  0.78720000  0.25860000  0.14570000  1
  C  C138  1  0.79200000  0.10570000  0.59810000  1
  C  C139  1  0.81180000  0.03800000  0.70190000  1
  C  C140  1  0.81890000  0.35010000  0.13230000  1
  C  C141  1  0.82500000  0.00120000  0.75840000  1
  C  C142  1  0.82620000  0.12460000  0.27810000  1
  C  C143  1  0.82790000  0.10220000  0.38510000  1
  C  C144  1  0.83640000  0.48500000  0.73750000  1
  C  C145  1  0.85420000  0.85140000  0.57980000  1
  C  C146  1  0.87420000  0.64320000  0.74340000  1
  C  C147  1  0.88580000  0.52080000  0.11020000  1
  C  C148  1  0.90630000  0.10070000  0.44430000  1
  C  C149  1  0.90790000  0.12350000  0.34210000  1
  C  C150  1  0.91330000  0.56500000  0.72580000  1
  C  C151  1  0.93130000  0.85220000  0.63910000  1
  C  C152  1  0.93350000  0.11960000  0.63780000  1
  C  C153  1  0.93350000  0.87460000  0.53650000  1
  C  C154  1  0.93500000  0.37760000  0.10400000  1
  C  C155  1  0.94340000  0.08590000  0.69020000  1
  C  C156  1  0.96820000  0.46180000  0.09320000  1
  C  C157  1  0.98310000  0.39640000  0.69290000  1
  S  S158  1  0.07420000  0.37221000  0.90464000  1
  S  S159  1  0.22240000  0.84961000  0.46792000  1
  S  S160  1  0.47850000  0.34373000  0.72817000  1
  S  S161  1  0.52150000  0.65627000  0.27183000  1
  S  S162  1  0.77760000  0.15039000  0.53208000  1
  S  S163  1  0.92580000  0.62779000  0.09536000  1
  O  O164  1  0.04800000  0.99620000  0.21140000  1
  O  O165  1  0.06620000  0.64940000  0.07880000  1
  O  O166  1  0.09510000  0.85970000  0.76080000  1
  O  O167  1  0.09700000  0.30510000  0.85730000  1
  O  O168  1  0.10630000  0.76310000  0.45270000  1
  O  O169  1  0.11690000  0.15420000  0.07620000  1
  O  O170  1  0.12760000  0.12270000  0.52300000  1
  O  O171  1  0.13190000  0.59520000  0.27580000  1
  O  O172  1  0.14050000  0.79190000  0.87420000  1
  O  O173  1  0.17730000  0.92530000  0.51370000  1
  O  O174  1  0.21090000  0.40000000  0.96790000  1
  O  O175  1  0.21780000  0.19540000  0.21090000  1
  O  O176  1  0.28230000  0.01990000  0.87370000  1
  O  O177  1  0.29970000  0.03100000  0.22790000  1
  O  O178  1  0.30970000  0.76030000  0.82350000  1
  O  O179  1  0.31760000  0.89090000  0.73410000  1
  O  O180  1  0.33110000  0.11500000  0.09240000  1
  O  O181  1  0.36130000  0.59510000  0.22220000  1
  O  O182  1  0.36680000  0.38930000  0.73550000  1
  O  O183  1  0.37920000  0.85830000  0.49490000  1
  O  O184  1  0.42700000  0.28670000  0.19960000  1
  O  O185  1  0.44570000  0.75940000  0.68820000  1
  O  O186  1  0.47070000  0.40460000  0.93550000  1
  O  O187  1  0.49250000  0.99260000  0.13640000  1
  O  O188  1  0.49590000  0.68230000  0.33220000  1
  O  O189  1  0.50410000  0.31770000  0.66780000  1
  O  O190  1  0.50750000  0.00740000  0.86360000  1
  O  O191  1  0.52930000  0.59540000  0.06450000  1
  O  O192  1  0.55430000  0.24060000  0.31180000  1
  O  O193  1  0.57300000  0.71330000  0.80040000  1
  O  O194  1  0.62080000  0.14170000  0.50510000  1
  O  O195  1  0.63320000  0.61070000  0.26450000  1
  O  O196  1  0.63870000  0.40490000  0.77780000  1
  O  O197  1  0.66890000  0.88500000  0.90760000  1
  O  O198  1  0.68240000  0.10910000  0.26590000  1
  O  O199  1  0.69030000  0.23970000  0.17650000  1
  O  O200  1  0.70030000  0.96900000  0.77210000  1
  O  O201  1  0.71770000  0.98010000  0.12630000  1
  O  O202  1  0.78220000  0.80460000  0.78910000  1
  O  O203  1  0.78910000  0.60000000  0.03210000  1
  O  O204  1  0.82270000  0.07470000  0.48630000  1
  O  O205  1  0.85950000  0.20810000  0.12580000  1
  O  O206  1  0.86810000  0.40480000  0.72420000  1
  O  O207  1  0.87240000  0.87730000  0.47700000  1
  O  O208  1  0.88310000  0.84580000  0.92380000  1
  O  O209  1  0.89370000  0.23690000  0.54730000  1
  O  O210  1  0.90300000  0.69490000  0.14270000  1
  O  O211  1  0.90490000  0.14030000  0.23920000  1
  O  O212  1  0.93380000  0.35060000  0.92120000  1
  O  O213  1  0.95200000  0.00380000  0.78860000  1
