# generated using pymatgen
data_Mn2P2H3C3O14
_symmetry_space_group_name_H-M   'P 1'
_cell_length_a   8.89460000
_cell_length_b   9.81250000
_cell_length_c   12.25070000
_cell_angle_alpha   81.74200000
_cell_angle_beta   71.83100000
_cell_angle_gamma   72.82700000
_symmetry_Int_Tables_number   1
_chemical_formula_structural   Mn2P2H3C3O14
_chemical_formula_sum   'Mn4 P4 H6 C6 O28'
_cell_volume   969.05073346
_cell_formula_units_Z   2
loop_
 _symmetry_equiv_pos_site_id
 _symmetry_equiv_pos_as_xyz
  1  'x, y, z'
loop_
 _atom_site_type_symbol
 _atom_site_label
 _atom_site_symmetry_multiplicity
 _atom_site_fract_x
 _atom_site_fract_y
 _atom_site_fract_z
 _atom_site_occupancy
  Mn  Mn0  1  0.06114000  0.65946000  0.28274000  1
  Mn  Mn1  1  0.40124000  0.95431000  0.92639000  1
  Mn  Mn2  1  0.59876000  0.04569000  0.07361000  1
  Mn  Mn3  1  0.93886000  0.34054000  0.71726000  1
  P  P4  1  0.28144000  0.33096000  0.18534000  1
  P  P5  1  0.31183000  0.88668000  0.22376000  1
  P  P6  1  0.68817000  0.11332000  0.77624000  1
  P  P7  1  0.71856000  0.66904000  0.81466000  1
  H  H8  1  0.19430000  0.27270000  0.07200000  1
  H  H9  1  0.25970000  0.16750000  0.29980000  1
  H  H10  1  0.48820000  0.70080000  0.21030000  1
  H  H11  1  0.51180000  0.29920000  0.78970000  1
  H  H12  1  0.74030000  0.83250000  0.70020000  1
  H  H13  1  0.80570000  0.72730000  0.92800000  1
  C  C14  1  0.05650000  0.53440000  0.51750000  1
  C  C15  1  0.16960000  0.22040000  0.86070000  1
  C  C16  1  0.24050000  0.12390000  0.75420000  1
  C  C17  1  0.75950000  0.87610000  0.24580000  1
  C  C18  1  0.83040000  0.77960000  0.13930000  1
  C  C19  1  0.94350000  0.46560000  0.48250000  1
  O  O20  1  0.05860000  0.33000000  0.85340000  1
  O  O21  1  0.08220000  0.49300000  0.61340000  1
  O  O22  1  0.11200000  0.62670000  0.44780000  1
  O  O23  1  0.14980000  0.32480000  0.12610000  1
  O  O24  1  0.17770000  0.82690000  0.21370000  1
  O  O25  1  0.17890000  0.16650000  0.67270000  1
  O  O26  1  0.23170000  0.17830000  0.94130000  1
  O  O27  1  0.23850000  0.25360000  0.30660000  1
  O  O28  1  0.25380000  0.99110000  0.31830000  1
  O  O29  1  0.25960000  0.48610000  0.20280000  1
  O  O30  1  0.35140000  0.01290000  0.75960000  1
  O  O31  1  0.39160000  0.95480000  0.10710000  1
  O  O32  1  0.44900000  0.75980000  0.25970000  1
  O  O33  1  0.45140000  0.25750000  0.11350000  1
  O  O34  1  0.54860000  0.74250000  0.88650000  1
  O  O35  1  0.55100000  0.24020000  0.74030000  1
  O  O36  1  0.60840000  0.04520000  0.89290000  1
  O  O37  1  0.64860000  0.98710000  0.24040000  1
  O  O38  1  0.74040000  0.51390000  0.79720000  1
  O  O39  1  0.74620000  0.00890000  0.68170000  1
  O  O40  1  0.76150000  0.74640000  0.69340000  1
  O  O41  1  0.76830000  0.82170000  0.05870000  1
  O  O42  1  0.82110000  0.83350000  0.32730000  1
  O  O43  1  0.82230000  0.17310000  0.78630000  1
  O  O44  1  0.85020000  0.67520000  0.87390000  1
  O  O45  1  0.88800000  0.37330000  0.55220000  1
  O  O46  1  0.91780000  0.50700000  0.38660000  1
  O  O47  1  0.94140000  0.67000000  0.14660000  1
