# generated using pymatgen
data_MnGa4P4C2(O10F)2
_symmetry_space_group_name_H-M   'P 1'
_cell_length_a   8.14520000
_cell_length_b   8.90290000
_cell_length_c   10.44520000
_cell_angle_alpha   111.43700000
_cell_angle_beta   103.73400000
_cell_angle_gamma   102.09600000
_symmetry_Int_Tables_number   1
_chemical_formula_structural   MnGa4P4C2(O10F)2
_chemical_formula_sum   'Mn1 Ga4 P4 C2 O20 F2'
_cell_volume   647.06370646
_cell_formula_units_Z   1
loop_
 _symmetry_equiv_pos_site_id
 _symmetry_equiv_pos_as_xyz
  1  'x, y, z'
loop_
 _atom_site_type_symbol
 _atom_site_label
 _atom_site_symmetry_multiplicity
 _atom_site_fract_x
 _atom_site_fract_y
 _atom_site_fract_z
 _atom_site_occupancy
  Mn  Mn0  1  0.50000000  0.50000000  0.50000000  1
  Ga  Ga1  1  0.23199000  0.94593000  0.94719000  1
  Ga  Ga2  1  0.31196000  0.49083000  0.14081000  1
  Ga  Ga3  1  0.68804000  0.50917000  0.85919000  1
  Ga  Ga4  1  0.76801000  0.05407000  0.05281000  1
  P  P5  1  0.16393000  0.18126000  0.21716000  1
  P  P6  1  0.46296000  0.74204000  0.00981000  1
  P  P7  1  0.53704000  0.25796000  0.99019000  1
  P  P8  1  0.83607000  0.81874000  0.78284000  1
  C  C9  1  0.00380000  0.43790000  0.92710000  1
  C  C10  1  0.99620000  0.56210000  0.07290000  1
  O  O11  1  0.03140000  0.90760000  0.80090000  1
  O  O12  1  0.13170000  0.61350000  0.18440000  1
  O  O13  1  0.14410000  0.39740000  0.93260000  1
  O  O14  1  0.15350000  0.30280000  0.14650000  1
  O  O15  1  0.23350000  0.04030000  0.13340000  1
  O  O16  1  0.27720000  0.26480000  0.37740000  1
  O  O17  1  0.28340000  0.74880000  0.92530000  1
  O  O18  1  0.40170000  0.07640000  0.90970000  1
  O  O19  1  0.44590000  0.68470000  0.12700000  1
  O  O20  1  0.48110000  0.37460000  0.10550000  1
  O  O21  1  0.51890000  0.62540000  0.89450000  1
  O  O22  1  0.55410000  0.31530000  0.87300000  1
  O  O23  1  0.59830000  0.92360000  0.09030000  1
  O  O24  1  0.71660000  0.25120000  0.07470000  1
  O  O25  1  0.72280000  0.73520000  0.62260000  1
  O  O26  1  0.76650000  0.95970000  0.86660000  1
  O  O27  1  0.84650000  0.69720000  0.85350000  1
  O  O28  1  0.85590000  0.60260000  0.06740000  1
  O  O29  1  0.86830000  0.38650000  0.81560000  1
  O  O30  1  0.96860000  0.09240000  0.19910000  1
  F  F31  1  0.43320000  0.59520000  0.34390000  1
  F  F32  1  0.56680000  0.40480000  0.65610000  1
