# generated using pymatgen
data_Co5P2H80W24C96(N16O31)2
_symmetry_space_group_name_H-M   'P 1'
_cell_length_a   25.18900000
_cell_length_b   27.24900000
_cell_length_c   27.42000000
_cell_angle_alpha   90.00000000
_cell_angle_beta   90.00000000
_cell_angle_gamma   90.00000000
_symmetry_Int_Tables_number   1
_chemical_formula_structural   Co5P2H80W24C96(N16O31)2
_chemical_formula_sum   'Co20 P8 H320 W96 C384 N128 O248'
_cell_volume   18820.40417262
_cell_formula_units_Z   4
loop_
 _symmetry_equiv_pos_site_id
 _symmetry_equiv_pos_as_xyz
  1  'x, y, z'
loop_
 _atom_site_type_symbol
 _atom_site_label
 _atom_site_symmetry_multiplicity
 _atom_site_fract_x
 _atom_site_fract_y
 _atom_site_fract_z
 _atom_site_occupancy
  Co  Co0  1  0.25000000  0.00000000  0.45280000  1
  Co  Co1  1  0.75000000  0.00000000  0.54720000  1
  Co  Co2  1  0.52931000  0.09850000  0.08938000  1
  Co  Co3  1  0.02931000  0.09850000  0.91062000  1
  Co  Co4  1  0.25760000  0.24887000  0.21621000  1
  Co  Co5  1  0.75760000  0.24887000  0.78379000  1
  Co  Co6  1  0.75760000  0.25113000  0.28379000  1
  Co  Co7  1  0.25760000  0.25113000  0.71621000  1
  Co  Co8  1  0.02931000  0.40150000  0.41062000  1
  Co  Co9  1  0.52931000  0.40150000  0.58938000  1
  Co  Co10  1  0.75000000  0.50000000  0.04720000  1
  Co  Co11  1  0.25000000  0.50000000  0.95280000  1
  Co  Co12  1  0.47069000  0.59850000  0.41062000  1
  Co  Co13  1  0.97069000  0.59850000  0.58938000  1
  Co  Co14  1  0.74240000  0.74887000  0.28379000  1
  Co  Co15  1  0.24240000  0.74887000  0.71621000  1
  Co  Co16  1  0.24240000  0.75113000  0.21621000  1
  Co  Co17  1  0.74240000  0.75113000  0.78379000  1
  Co  Co18  1  0.97069000  0.90150000  0.08938000  1
  Co  Co19  1  0.47069000  0.90150000  0.91062000  1
  P  P20  1  0.99435000  0.14452000  0.17911000  1
  P  P21  1  0.49435000  0.14452000  0.82089000  1
  P  P22  1  0.49435000  0.35548000  0.32089000  1
  P  P23  1  0.99435000  0.35548000  0.67911000  1
  P  P24  1  0.00565000  0.64452000  0.32089000  1
  P  P25  1  0.50565000  0.64452000  0.67911000  1
  P  P26  1  0.50565000  0.85548000  0.17911000  1
  P  P27  1  0.00565000  0.85548000  0.82089000  1
  H  H28  1  0.33870000  0.01820000  0.23120000  1
  H  H29  1  0.83870000  0.01820000  0.76880000  1
  H  H30  1  0.66390000  0.02320000  0.29930000  1
  H  H31  1  0.16390000  0.02320000  0.70070000  1
  H  H32  1  0.85520000  0.03730000  0.01370000  1
  H  H33  1  0.35520000  0.03730000  0.98630000  1
  H  H34  1  0.78440000  0.04330000  0.06850000  1
  H  H35  1  0.28440000  0.04330000  0.93150000  1
  H  H36  1  0.71950000  0.05550000  0.45140000  1
  H  H37  1  0.21950000  0.05550000  0.54860000  1
  H  H38  1  0.80900000  0.05670000  0.27740000  1
  H  H39  1  0.30900000  0.05670000  0.72260000  1
  H  H40  1  0.18920000  0.06360000  0.23180000  1
  H  H41  1  0.68920000  0.06360000  0.76820000  1
  H  H42  1  0.33660000  0.07340000  0.14430000  1
  H  H43  1  0.83660000  0.07340000  0.85570000  1
  H  H44  1  0.42620000  0.07510000  0.02660000  1
  H  H45  1  0.92620000  0.07510000  0.97340000  1
  H  H46  1  0.34360000  0.08050000  0.47840000  1
  H  H47  1  0.84360000  0.08050000  0.52160000  1
  H  H48  1  0.62680000  0.08600000  0.01590000  1
  H  H49  1  0.42770000  0.08600000  0.16910000  1
  H  H50  1  0.92770000  0.08600000  0.83090000  1
  H  H51  1  0.12680000  0.08600000  0.98410000  1
  H  H52  1  0.35660000  0.09320000  0.27400000  1
  H  H53  1  0.85660000  0.09320000  0.72600000  1
  H  H54  1  0.73080000  0.09730000  0.12280000  1
  H  H55  1  0.23080000  0.09730000  0.87720000  1
  H  H56  1  0.64040000  0.09960000  0.30230000  1
  H  H57  1  0.14040000  0.09960000  0.69770000  1
  H  H58  1  0.26920000  0.10520000  0.08840000  1
  H  H59  1  0.76920000  0.10520000  0.91160000  1
  H  H60  1  0.64070000  0.11200000  0.15540000  1
  H  H61  1  0.14070000  0.11200000  0.84460000  1
  H  H62  1  0.19860000  0.11240000  0.03480000  1
  H  H63  1  0.69860000  0.11240000  0.96520000  1
  H  H64  1  0.77590000  0.12060000  0.40110000  1
  H  H65  1  0.27590000  0.12060000  0.59890000  1
  H  H66  1  0.22890000  0.13610000  0.20360000  1
  H  H67  1  0.72890000  0.13610000  0.79640000  1
  H  H68  1  0.79030000  0.13710000  0.29280000  1
  H  H69  1  0.29030000  0.13710000  0.70720000  1
  H  H70  1  0.86650000  0.14030000  0.37990000  1
  H  H71  1  0.36650000  0.14030000  0.62010000  1
  H  H72  1  0.37980000  0.16540000  0.47730000  1
  H  H73  1  0.87980000  0.16540000  0.52270000  1
  H  H74  1  0.35450000  0.18260000  0.27030000  1
  H  H75  1  0.85450000  0.18260000  0.72970000  1
  H  H76  1  0.45600000  0.18550000  0.04590000  1
  H  H77  1  0.95600000  0.18550000  0.95410000  1
  H  H78  1  0.35490000  0.19140000  0.06300000  1
  H  H79  1  0.85490000  0.19140000  0.93700000  1
  H  H80  1  0.65010000  0.19180000  0.29770000  1
  H  H81  1  0.15010000  0.19180000  0.70230000  1
  H  H82  1  0.58160000  0.20050000  0.12720000  1
  H  H83  1  0.08160000  0.20050000  0.87280000  1
  H  H84  1  0.93190000  0.20100000  0.36420000  1
  H  H85  1  0.43190000  0.20100000  0.63580000  1
  H  H86  1  0.35610000  0.20400000  0.15150000  1
  H  H87  1  0.85610000  0.20400000  0.84850000  1
  H  H88  1  0.04490000  0.21590000  0.38530000  1
  H  H89  1  0.54490000  0.21590000  0.61470000  1
  H  H90  1  0.18860000  0.21680000  0.02640000  1
  H  H91  1  0.68860000  0.21680000  0.97360000  1
  H  H92  1  0.78520000  0.21730000  0.16930000  1
  H  H93  1  0.28520000  0.21730000  0.83070000  1
  H  H94  1  0.44840000  0.21910000  0.49220000  1
  H  H95  1  0.94840000  0.21910000  0.50780000  1
  H  H96  1  0.15700000  0.22140000  0.28310000  1
  H  H97  1  0.65700000  0.22140000  0.71690000  1
  H  H98  1  0.66210000  0.22310000  0.05450000  1
  H  H99  1  0.16210000  0.22310000  0.94550000  1
  H  H100  1  0.14770000  0.22680000  0.37210000  1
  H  H101  1  0.64770000  0.22680000  0.62790000  1
  H  H102  1  0.83880000  0.23380000  0.01110000  1
  H  H103  1  0.33880000  0.23380000  0.98890000  1
  H  H104  1  0.81480000  0.24050000  0.09280000  1
  H  H105  1  0.31480000  0.24050000  0.90720000  1
  H  H106  1  0.72280000  0.24220000  0.39740000  1
  H  H107  1  0.22280000  0.24220000  0.60260000  1
  H  H108  1  0.22280000  0.25780000  0.10260000  1
  H  H109  1  0.72280000  0.25780000  0.89740000  1
  H  H110  1  0.31480000  0.25950000  0.40720000  1
  H  H111  1  0.81480000  0.25950000  0.59280000  1
  H  H112  1  0.33880000  0.26620000  0.48890000  1
  H  H113  1  0.83880000  0.26620000  0.51110000  1
  H  H114  1  0.64770000  0.27320000  0.12790000  1
  H  H115  1  0.14770000  0.27320000  0.87210000  1
  H  H116  1  0.16210000  0.27690000  0.44550000  1
  H  H117  1  0.66210000  0.27690000  0.55450000  1
  H  H118  1  0.65700000  0.27860000  0.21690000  1
  H  H119  1  0.15700000  0.27860000  0.78310000  1
  H  H120  1  0.94840000  0.28090000  0.00780000  1
  H  H121  1  0.44840000  0.28090000  0.99220000  1
  H  H122  1  0.28520000  0.28270000  0.33070000  1
  H  H123  1  0.78520000  0.28270000  0.66930000  1
  H  H124  1  0.68860000  0.28320000  0.47360000  1
  H  H125  1  0.18860000  0.28320000  0.52640000  1
  H  H126  1  0.54490000  0.28410000  0.11470000  1
  H  H127  1  0.04490000  0.28410000  0.88530000  1
  H  H128  1  0.85610000  0.29600000  0.34850000  1
  H  H129  1  0.35610000  0.29600000  0.65150000  1
  H  H130  1  0.43190000  0.29900000  0.13580000  1
  H  H131  1  0.93190000  0.29900000  0.86420000  1
  H  H132  1  0.08160000  0.29950000  0.37280000  1
  H  H133  1  0.58160000  0.29950000  0.62720000  1
  H  H134  1  0.15010000  0.30820000  0.20230000  1
  H  H135  1  0.65010000  0.30820000  0.79770000  1
  H  H136  1  0.85490000  0.30860000  0.43700000  1
  H  H137  1  0.35490000  0.30860000  0.56300000  1
  H  H138  1  0.95600000  0.31450000  0.45410000  1
  H  H139  1  0.45600000  0.31450000  0.54590000  1
  H  H140  1  0.85450000  0.31740000  0.22970000  1
  H  H141  1  0.35450000  0.31740000  0.77030000  1
  H  H142  1  0.87980000  0.33460000  0.02270000  1
  H  H143  1  0.37980000  0.33460000  0.97730000  1
  H  H144  1  0.36650000  0.35970000  0.12010000  1
  H  H145  1  0.86650000  0.35970000  0.87990000  1
  H  H146  1  0.29030000  0.36290000  0.20720000  1
  H  H147  1  0.79030000  0.36290000  0.79280000  1
  H  H148  1  0.72890000  0.36390000  0.29640000  1
  H  H149  1  0.22890000  0.36390000  0.70360000  1
  H  H150  1  0.27590000  0.37940000  0.09890000  1
  H  H151  1  0.77590000  0.37940000  0.90110000  1
  H  H152  1  0.69860000  0.38760000  0.46520000  1
  H  H153  1  0.19860000  0.38760000  0.53480000  1
  H  H154  1  0.14070000  0.38800000  0.34460000  1
  H  H155  1  0.64070000  0.38800000  0.65540000  1
  H  H156  1  0.76920000  0.39480000  0.41160000  1
  H  H157  1  0.26920000  0.39480000  0.58840000  1
  H  H158  1  0.14040000  0.40040000  0.19770000  1
  H  H159  1  0.64040000  0.40040000  0.80230000  1
  H  H160  1  0.23080000  0.40270000  0.37720000  1
  H  H161  1  0.73080000  0.40270000  0.62280000  1
  H  H162  1  0.85660000  0.40680000  0.22600000  1
  H  H163  1  0.35660000  0.40680000  0.77400000  1
  H  H164  1  0.92770000  0.41400000  0.33090000  1
  H  H165  1  0.12680000  0.41400000  0.48410000  1
  H  H166  1  0.62680000  0.41400000  0.51590000  1
  H  H167  1  0.42770000  0.41400000  0.66910000  1
  H  H168  1  0.84360000  0.41950000  0.02160000  1
  H  H169  1  0.34360000  0.41950000  0.97840000  1
  H  H170  1  0.92620000  0.42490000  0.47340000  1
  H  H171  1  0.42620000  0.42490000  0.52660000  1
  H  H172  1  0.83660000  0.42660000  0.35570000  1
  H  H173  1  0.33660000  0.42660000  0.64430000  1
  H  H174  1  0.68920000  0.43640000  0.26820000  1
  H  H175  1  0.18920000  0.43640000  0.73180000  1
  H  H176  1  0.30900000  0.44330000  0.22260000  1
  H  H177  1  0.80900000  0.44330000  0.77740000  1
  H  H178  1  0.21950000  0.44450000  0.04860000  1
  H  H179  1  0.71950000  0.44450000  0.95140000  1
  H  H180  1  0.28440000  0.45670000  0.43150000  1
  H  H181  1  0.78440000  0.45670000  0.56850000  1
  H  H182  1  0.35520000  0.46270000  0.48630000  1
  H  H183  1  0.85520000  0.46270000  0.51370000  1
  H  H184  1  0.16390000  0.47680000  0.20070000  1
  H  H185  1  0.66390000  0.47680000  0.79930000  1
  H  H186  1  0.83870000  0.48180000  0.26880000  1
  H  H187  1  0.33870000  0.48180000  0.73120000  1
  H  H188  1  0.66130000  0.51820000  0.26880000  1
  H  H189  1  0.16130000  0.51820000  0.73120000  1
  H  H190  1  0.33610000  0.52320000  0.20070000  1
  H  H191  1  0.83610000  0.52320000  0.79930000  1
  H  H192  1  0.14480000  0.53730000  0.48630000  1
  H  H193  1  0.64480000  0.53730000  0.51370000  1
  H  H194  1  0.21560000  0.54330000  0.43150000  1
  H  H195  1  0.71560000  0.54330000  0.56850000  1
  H  H196  1  0.28050000  0.55550000  0.04860000  1
  H  H197  1  0.78050000  0.55550000  0.95140000  1
  H  H198  1  0.19100000  0.55670000  0.22260000  1
  H  H199  1  0.69100000  0.55670000  0.77740000  1
  H  H200  1  0.81080000  0.56360000  0.26820000  1
  H  H201  1  0.31080000  0.56360000  0.73180000  1
  H  H202  1  0.66340000  0.57340000  0.35570000  1
  H  H203  1  0.16340000  0.57340000  0.64430000  1
  H  H204  1  0.57380000  0.57510000  0.47340000  1
  H  H205  1  0.07380000  0.57510000  0.52660000  1
  H  H206  1  0.65640000  0.58050000  0.02160000  1
  H  H207  1  0.15640000  0.58050000  0.97840000  1
  H  H208  1  0.57230000  0.58600000  0.33090000  1
  H  H209  1  0.37320000  0.58600000  0.48410000  1
  H  H210  1  0.87320000  0.58600000  0.51590000  1
  H  H211  1  0.07230000  0.58600000  0.66910000  1
  H  H212  1  0.64340000  0.59320000  0.22600000  1
  H  H213  1  0.14340000  0.59320000  0.77400000  1
  H  H214  1  0.26920000  0.59730000  0.37720000  1
  H  H215  1  0.76920000  0.59730000  0.62280000  1
  H  H216  1  0.35960000  0.59960000  0.19770000  1
  H  H217  1  0.85960000  0.59960000  0.80230000  1
  H  H218  1  0.73080000  0.60520000  0.41160000  1
  H  H219  1  0.23080000  0.60520000  0.58840000  1
  H  H220  1  0.35930000  0.61200000  0.34460000  1
  H  H221  1  0.85930000  0.61200000  0.65540000  1
  H  H222  1  0.80140000  0.61240000  0.46520000  1
  H  H223  1  0.30140000  0.61240000  0.53480000  1
  H  H224  1  0.22410000  0.62060000  0.09890000  1
  H  H225  1  0.72410000  0.62060000  0.90110000  1
  H  H226  1  0.77110000  0.63610000  0.29640000  1
  H  H227  1  0.27110000  0.63610000  0.70360000  1
  H  H228  1  0.20970000  0.63710000  0.20720000  1
  H  H229  1  0.70970000  0.63710000  0.79280000  1
  H  H230  1  0.13350000  0.64030000  0.12010000  1
  H  H231  1  0.63350000  0.64030000  0.87990000  1
  H  H232  1  0.62020000  0.66540000  0.02270000  1
  H  H233  1  0.12020000  0.66540000  0.97730000  1
  H  H234  1  0.64550000  0.68260000  0.22970000  1
  H  H235  1  0.14550000  0.68260000  0.77030000  1
  H  H236  1  0.54400000  0.68550000  0.45410000  1
  H  H237  1  0.04400000  0.68550000  0.54590000  1
  H  H238  1  0.64510000  0.69140000  0.43700000  1
  H  H239  1  0.14510000  0.69140000  0.56300000  1
  H  H240  1  0.34990000  0.69180000  0.20230000  1
  H  H241  1  0.84990000  0.69180000  0.79770000  1
  H  H242  1  0.41840000  0.70050000  0.37280000  1
  H  H243  1  0.91840000  0.70050000  0.62720000  1
  H  H244  1  0.06810000  0.70100000  0.13580000  1
  H  H245  1  0.56810000  0.70100000  0.86420000  1
  H  H246  1  0.64390000  0.70400000  0.34850000  1
  H  H247  1  0.14390000  0.70400000  0.65150000  1
  H  H248  1  0.95510000  0.71590000  0.11470000  1
  H  H249  1  0.45510000  0.71590000  0.88530000  1
  H  H250  1  0.81140000  0.71680000  0.47360000  1
  H  H251  1  0.31140000  0.71680000  0.52640000  1
  H  H252  1  0.21480000  0.71730000  0.33070000  1
  H  H253  1  0.71480000  0.71730000  0.66930000  1
  H  H254  1  0.55160000  0.71910000  0.00780000  1
  H  H255  1  0.05160000  0.71910000  0.99220000  1
  H  H256  1  0.84300000  0.72140000  0.21690000  1
  H  H257  1  0.34300000  0.72140000  0.78310000  1
  H  H258  1  0.33790000  0.72310000  0.44550000  1
  H  H259  1  0.83790000  0.72310000  0.55450000  1
  H  H260  1  0.85230000  0.72680000  0.12790000  1
  H  H261  1  0.35230000  0.72680000  0.87210000  1
  H  H262  1  0.16120000  0.73380000  0.48890000  1
  H  H263  1  0.66120000  0.73380000  0.51110000  1
  H  H264  1  0.18520000  0.74050000  0.40720000  1
  H  H265  1  0.68520000  0.74050000  0.59280000  1
  H  H266  1  0.27720000  0.74220000  0.10260000  1
  H  H267  1  0.77720000  0.74220000  0.89740000  1
  H  H268  1  0.77720000  0.75780000  0.39740000  1
  H  H269  1  0.27720000  0.75780000  0.60260000  1
  H  H270  1  0.68520000  0.75950000  0.09280000  1
  H  H271  1  0.18520000  0.75950000  0.90720000  1
  H  H272  1  0.66120000  0.76620000  0.01110000  1
  H  H273  1  0.16120000  0.76620000  0.98890000  1
  H  H274  1  0.35230000  0.77320000  0.37210000  1
  H  H275  1  0.85230000  0.77320000  0.62790000  1
  H  H276  1  0.83790000  0.77690000  0.05450000  1
  H  H277  1  0.33790000  0.77690000  0.94550000  1
  H  H278  1  0.34300000  0.77860000  0.28310000  1
  H  H279  1  0.84300000  0.77860000  0.71690000  1
  H  H280  1  0.05160000  0.78090000  0.49220000  1
  H  H281  1  0.55160000  0.78090000  0.50780000  1
  H  H282  1  0.71480000  0.78270000  0.16930000  1
  H  H283  1  0.21480000  0.78270000  0.83070000  1
  H  H284  1  0.31140000  0.78320000  0.02640000  1
  H  H285  1  0.81140000  0.78320000  0.97360000  1
  H  H286  1  0.45510000  0.78410000  0.38530000  1
  H  H287  1  0.95510000  0.78410000  0.61470000  1
  H  H288  1  0.14390000  0.79600000  0.15150000  1
  H  H289  1  0.64390000  0.79600000  0.84850000  1
  H  H290  1  0.56810000  0.79900000  0.36420000  1
  H  H291  1  0.06810000  0.79900000  0.63580000  1
  H  H292  1  0.91840000  0.79950000  0.12720000  1
  H  H293  1  0.41840000  0.79950000  0.87280000  1
  H  H294  1  0.84990000  0.80820000  0.29770000  1
  H  H295  1  0.34990000  0.80820000  0.70230000  1
  H  H296  1  0.14510000  0.80860000  0.06300000  1
  H  H297  1  0.64510000  0.80860000  0.93700000  1
  H  H298  1  0.04400000  0.81450000  0.04590000  1
  H  H299  1  0.54400000  0.81450000  0.95410000  1
  H  H300  1  0.14550000  0.81740000  0.27030000  1
  H  H301  1  0.64550000  0.81740000  0.72970000  1
  H  H302  1  0.12020000  0.83460000  0.47730000  1
  H  H303  1  0.62020000  0.83460000  0.52270000  1
  H  H304  1  0.63350000  0.85970000  0.37990000  1
  H  H305  1  0.13350000  0.85970000  0.62010000  1
  H  H306  1  0.70970000  0.86290000  0.29280000  1
  H  H307  1  0.20970000  0.86290000  0.70720000  1
  H  H308  1  0.27110000  0.86390000  0.20360000  1
  H  H309  1  0.77110000  0.86390000  0.79640000  1
  H  H310  1  0.72410000  0.87940000  0.40110000  1
  H  H311  1  0.22410000  0.87940000  0.59890000  1
  H  H312  1  0.30140000  0.88760000  0.03480000  1
  H  H313  1  0.80140000  0.88760000  0.96520000  1
  H  H314  1  0.85930000  0.88800000  0.15540000  1
  H  H315  1  0.35930000  0.88800000  0.84460000  1
  H  H316  1  0.23080000  0.89480000  0.08840000  1
  H  H317  1  0.73080000  0.89480000  0.91160000  1
  H  H318  1  0.85960000  0.90040000  0.30230000  1
  H  H319  1  0.35960000  0.90040000  0.69770000  1
  H  H320  1  0.76920000  0.90270000  0.12280000  1
  H  H321  1  0.26920000  0.90270000  0.87720000  1
  H  H322  1  0.14340000  0.90680000  0.27400000  1
  H  H323  1  0.64340000  0.90680000  0.72600000  1
  H  H324  1  0.87320000  0.91400000  0.01590000  1
  H  H325  1  0.07230000  0.91400000  0.16910000  1
  H  H326  1  0.57230000  0.91400000  0.83090000  1
  H  H327  1  0.37320000  0.91400000  0.98410000  1
  H  H328  1  0.15640000  0.91950000  0.47840000  1
  H  H329  1  0.65640000  0.91950000  0.52160000  1
  H  H330  1  0.07380000  0.92490000  0.02660000  1
  H  H331  1  0.57380000  0.92490000  0.97340000  1
  H  H332  1  0.16340000  0.92660000  0.14430000  1
  H  H333  1  0.66340000  0.92660000  0.85570000  1
  H  H334  1  0.31080000  0.93640000  0.23180000  1
  H  H335  1  0.81080000  0.93640000  0.76820000  1
  H  H336  1  0.69100000  0.94330000  0.27740000  1
  H  H337  1  0.19100000  0.94330000  0.72260000  1
  H  H338  1  0.78050000  0.94450000  0.45140000  1
  H  H339  1  0.28050000  0.94450000  0.54860000  1
  H  H340  1  0.71560000  0.95670000  0.06850000  1
  H  H341  1  0.21560000  0.95670000  0.93150000  1
  H  H342  1  0.64480000  0.96270000  0.01370000  1
  H  H343  1  0.14480000  0.96270000  0.98630000  1
  H  H344  1  0.83610000  0.97680000  0.29930000  1
  H  H345  1  0.33610000  0.97680000  0.70070000  1
  H  H346  1  0.16130000  0.98180000  0.23120000  1
  H  H347  1  0.66130000  0.98180000  0.76880000  1
  W  W348  1  0.04265000  0.03234000  0.22758000  1
  W  W349  1  0.54265000  0.03234000  0.77242000  1
  W  W350  1  0.96567000  0.03685000  0.11341000  1
  W  W351  1  0.46567000  0.03685000  0.88659000  1
  W  W352  1  0.10168000  0.08614000  0.11718000  1
  W  W353  1  0.60168000  0.08614000  0.88282000  1
  W  W354  1  0.93969000  0.08919000  0.28482000  1
  W  W355  1  0.43969000  0.08919000  0.71518000  1
  W  W356  1  0.86378000  0.09440000  0.17014000  1
  W  W357  1  0.36378000  0.09440000  0.82986000  1
  W  W358  1  0.06367000  0.13756000  0.29073000  1
  W  W359  1  0.56367000  0.13756000  0.70927000  1
  W  W360  1  0.91937000  0.14602000  0.06979000  1
  W  W361  1  0.41937000  0.14602000  0.93021000  1
  W  W362  1  0.12329000  0.19158000  0.18004000  1
  W  W363  1  0.62329000  0.19158000  0.81996000  1
  W  W364  1  0.05583000  0.19633000  0.07355000  1
  W  W365  1  0.55583000  0.19633000  0.92645000  1
  W  W366  1  0.89150000  0.20742000  0.23779000  1
  W  W367  1  0.39150000  0.20742000  0.76221000  1
  W  W368  1  0.44661000  0.23976000  0.36309000  1
  W  W369  1  0.94661000  0.23976000  0.63691000  1
  W  W370  1  0.51486000  0.24388000  0.25590000  1
  W  W371  1  0.01486000  0.24388000  0.74410000  1
  W  W372  1  0.01486000  0.25612000  0.24410000  1
  W  W373  1  0.51486000  0.25612000  0.75590000  1
  W  W374  1  0.94661000  0.26024000  0.13691000  1
  W  W375  1  0.44661000  0.26024000  0.86309000  1
  W  W376  1  0.39150000  0.29258000  0.26221000  1
  W  W377  1  0.89150000  0.29258000  0.73779000  1
  W  W378  1  0.55583000  0.30367000  0.42645000  1
  W  W379  1  0.05583000  0.30367000  0.57355000  1
  W  W380  1  0.62329000  0.30842000  0.31996000  1
  W  W381  1  0.12329000  0.30842000  0.68004000  1
  W  W382  1  0.41937000  0.35398000  0.43021000  1
  W  W383  1  0.91937000  0.35398000  0.56979000  1
  W  W384  1  0.56367000  0.36244000  0.20927000  1
  W  W385  1  0.06367000  0.36244000  0.79073000  1
  W  W386  1  0.36378000  0.40560000  0.32986000  1
  W  W387  1  0.86378000  0.40560000  0.67014000  1
  W  W388  1  0.43969000  0.41081000  0.21518000  1
  W  W389  1  0.93969000  0.41081000  0.78482000  1
  W  W390  1  0.60168000  0.41386000  0.38282000  1
  W  W391  1  0.10168000  0.41386000  0.61718000  1
  W  W392  1  0.46567000  0.46315000  0.38659000  1
  W  W393  1  0.96567000  0.46315000  0.61341000  1
  W  W394  1  0.54265000  0.46766000  0.27242000  1
  W  W395  1  0.04265000  0.46766000  0.72758000  1
  W  W396  1  0.95735000  0.53234000  0.27242000  1
  W  W397  1  0.45735000  0.53234000  0.72758000  1
  W  W398  1  0.03433000  0.53685000  0.38659000  1
  W  W399  1  0.53433000  0.53685000  0.61341000  1
  W  W400  1  0.89832000  0.58614000  0.38282000  1
  W  W401  1  0.39832000  0.58614000  0.61718000  1
  W  W402  1  0.06031000  0.58919000  0.21518000  1
  W  W403  1  0.56031000  0.58919000  0.78482000  1
  W  W404  1  0.13622000  0.59440000  0.32986000  1
  W  W405  1  0.63622000  0.59440000  0.67014000  1
  W  W406  1  0.93633000  0.63756000  0.20927000  1
  W  W407  1  0.43633000  0.63756000  0.79073000  1
  W  W408  1  0.08063000  0.64602000  0.43021000  1
  W  W409  1  0.58063000  0.64602000  0.56979000  1
  W  W410  1  0.87671000  0.69158000  0.31996000  1
  W  W411  1  0.37671000  0.69158000  0.68004000  1
  W  W412  1  0.94417000  0.69633000  0.42645000  1
  W  W413  1  0.44417000  0.69633000  0.57355000  1
  W  W414  1  0.10850000  0.70742000  0.26221000  1
  W  W415  1  0.60850000  0.70742000  0.73779000  1
  W  W416  1  0.55339000  0.73976000  0.13691000  1
  W  W417  1  0.05339000  0.73976000  0.86309000  1
  W  W418  1  0.48514000  0.74388000  0.24410000  1
  W  W419  1  0.98514000  0.74388000  0.75590000  1
  W  W420  1  0.98514000  0.75612000  0.25590000  1
  W  W421  1  0.48514000  0.75612000  0.74410000  1
  W  W422  1  0.05339000  0.76024000  0.36309000  1
  W  W423  1  0.55339000  0.76024000  0.63691000  1
  W  W424  1  0.60850000  0.79258000  0.23779000  1
  W  W425  1  0.10850000  0.79258000  0.76221000  1
  W  W426  1  0.44417000  0.80367000  0.07355000  1
  W  W427  1  0.94417000  0.80367000  0.92645000  1
  W  W428  1  0.37671000  0.80842000  0.18004000  1
  W  W429  1  0.87671000  0.80842000  0.81996000  1
  W  W430  1  0.58063000  0.85398000  0.06979000  1
  W  W431  1  0.08063000  0.85398000  0.93021000  1
  W  W432  1  0.43633000  0.86244000  0.29073000  1
  W  W433  1  0.93633000  0.86244000  0.70927000  1
  W  W434  1  0.63622000  0.90560000  0.17014000  1
  W  W435  1  0.13622000  0.90560000  0.82986000  1
  W  W436  1  0.56031000  0.91081000  0.28482000  1
  W  W437  1  0.06031000  0.91081000  0.71518000  1
  W  W438  1  0.39832000  0.91386000  0.11718000  1
  W  W439  1  0.89832000  0.91386000  0.88282000  1
  W  W440  1  0.53433000  0.96315000  0.11341000  1
  W  W441  1  0.03433000  0.96315000  0.88659000  1
  W  W442  1  0.45735000  0.96766000  0.22758000  1
  W  W443  1  0.95735000  0.96766000  0.77242000  1
  C  C444  1  0.30270000  0.01080000  0.23210000  1
  C  C445  1  0.80270000  0.01080000  0.76790000  1
  C  C446  1  0.69960000  0.01490000  0.29680000  1
  C  C447  1  0.19960000  0.01490000  0.70320000  1
  C  C448  1  0.78470000  0.03400000  0.28950000  1
  C  C449  1  0.28470000  0.03400000  0.71050000  1
  C  C450  1  0.21370000  0.03810000  0.23220000  1
  C  C451  1  0.71370000  0.03810000  0.76780000  1
  C  C452  1  0.26660000  0.04740000  0.23310000  1
  C  C453  1  0.76660000  0.04740000  0.76690000  1
  C  C454  1  0.73570000  0.04800000  0.29980000  1
  C  C455  1  0.23570000  0.04800000  0.70020000  1
  C  C456  1  0.82390000  0.05270000  0.00430000  1
  C  C457  1  0.32390000  0.05270000  0.99570000  1
  C  C458  1  0.78150000  0.05660000  0.03740000  1
  C  C459  1  0.28150000  0.05660000  0.96260000  1
  C  C460  1  0.75300000  0.06640000  0.45920000  1
  C  C461  1  0.25300000  0.06640000  0.54080000  1
  C  C462  1  0.31920000  0.07150000  0.04170000  1
  C  C463  1  0.81920000  0.07150000  0.95830000  1
  C  C464  1  0.36560000  0.07540000  0.12340000  1
  C  C465  1  0.86560000  0.07540000  0.87660000  1
  C  C466  1  0.41550000  0.07660000  0.05900000  1
  C  C467  1  0.91550000  0.07660000  0.94100000  1
  C  C468  1  0.73570000  0.08000000  0.02340000  1
  C  C469  1  0.23570000  0.08000000  0.97660000  1
  C  C470  1  0.81910000  0.08050000  0.49630000  1
  C  C471  1  0.31910000  0.08050000  0.50370000  1
  C  C472  1  0.41580000  0.08240000  0.13720000  1
  C  C473  1  0.91580000  0.08240000  0.86280000  1
  C  C474  1  0.64110000  0.09010000  0.04690000  1
  C  C475  1  0.14110000  0.09010000  0.95310000  1
  C  C476  1  0.27230000  0.09350000  0.05670000  1
  C  C477  1  0.77230000  0.09350000  0.94330000  1
  C  C478  1  0.69930000  0.09660000  0.10520000  1
  C  C479  1  0.19930000  0.09660000  0.89480000  1
  C  C480  1  0.23010000  0.09790000  0.02480000  1
  C  C481  1  0.73010000  0.09790000  0.97520000  1
  C  C482  1  0.64910000  0.10430000  0.12330000  1
  C  C483  1  0.14910000  0.10430000  0.87670000  1
  C  C484  1  0.78400000  0.10600000  0.43100000  1
  C  C485  1  0.28400000  0.10600000  0.56900000  1
  C  C486  1  0.33030000  0.11240000  0.25970000  1
  C  C487  1  0.83030000  0.11240000  0.74030000  1
  C  C488  1  0.67190000  0.11740000  0.30080000  1
  C  C489  1  0.17190000  0.11740000  0.69920000  1
  C  C490  1  0.26040000  0.13710000  0.22120000  1
  C  C491  1  0.76040000  0.13710000  0.77880000  1
  C  C492  1  0.75360000  0.13900000  0.29620000  1
  C  C493  1  0.25360000  0.13900000  0.70380000  1
  C  C494  1  0.86810000  0.14710000  0.45150000  1
  C  C495  1  0.36810000  0.14710000  0.54850000  1
  C  C496  1  0.88250000  0.15700000  0.40560000  1
  C  C497  1  0.38250000  0.15700000  0.59440000  1
  C  C498  1  0.32880000  0.16190000  0.25730000  1
  C  C499  1  0.82880000  0.16190000  0.74270000  1
  C  C500  1  0.67790000  0.16930000  0.29830000  1
  C  C501  1  0.17790000  0.16930000  0.70170000  1
  C  C502  1  0.89120000  0.17140000  0.49100000  1
  C  C503  1  0.39120000  0.17140000  0.50900000  1
  C  C504  1  0.92250000  0.19290000  0.39590000  1
  C  C505  1  0.42250000  0.19290000  0.60410000  1
  C  C506  1  0.48230000  0.19990000  0.06490000  1
  C  C507  1  0.98230000  0.19990000  0.93510000  1
  C  C508  1  0.93110000  0.20400000  0.48190000  1
  C  C509  1  0.43110000  0.20400000  0.51810000  1
  C  C510  1  0.32860000  0.20640000  0.08160000  1
  C  C511  1  0.82860000  0.20640000  0.91840000  1
  C  C512  1  0.55160000  0.20820000  0.10900000  1
  C  C513  1  0.05160000  0.20820000  0.89100000  1
  C  C514  1  0.32900000  0.21350000  0.13050000  1
  C  C515  1  0.82900000  0.21350000  0.86950000  1
  C  C516  1  0.94610000  0.21470000  0.43480000  1
  C  C517  1  0.44610000  0.21470000  0.56520000  1
  C  C518  1  0.21360000  0.22280000  0.00220000  1
  C  C519  1  0.71360000  0.22280000  0.99780000  1
  C  C520  1  0.69770000  0.22610000  0.04600000  1
  C  C521  1  0.19770000  0.22610000  0.95400000  1
  C  C522  1  0.26490000  0.22830000  0.01410000  1
  C  C523  1  0.76490000  0.22830000  0.98590000  1
  C  C524  1  0.75150000  0.23130000  0.17070000  1
  C  C525  1  0.25150000  0.23130000  0.82930000  1
  C  C526  1  0.80320000  0.23300000  0.02010000  1
  C  C527  1  0.30320000  0.23300000  0.97990000  1
  C  C528  1  0.73670000  0.23410000  0.08190000  1
  C  C529  1  0.23670000  0.23410000  0.91810000  1
  C  C530  1  0.18190000  0.23520000  0.30400000  1
  C  C531  1  0.68190000  0.23520000  0.69600000  1
  C  C532  1  0.78890000  0.23650000  0.06900000  1
  C  C533  1  0.28890000  0.23650000  0.93100000  1
  C  C534  1  0.17600000  0.23770000  0.35320000  1
  C  C535  1  0.67600000  0.23770000  0.64680000  1
  C  C536  1  0.25610000  0.24310000  0.10400000  1
  C  C537  1  0.75610000  0.24310000  0.89600000  1
  C  C538  1  0.03100000  0.24520000  0.39700000  1
  C  C539  1  0.53100000  0.24520000  0.60300000  1
  C  C540  1  0.53100000  0.25480000  0.10300000  1
  C  C541  1  0.03100000  0.25480000  0.89700000  1
  C  C542  1  0.75610000  0.25690000  0.39600000  1
  C  C543  1  0.25610000  0.25690000  0.60400000  1
  C  C544  1  0.67600000  0.26230000  0.14680000  1
  C  C545  1  0.17600000  0.26230000  0.85320000  1
  C  C546  1  0.28890000  0.26350000  0.43100000  1
  C  C547  1  0.78890000  0.26350000  0.56900000  1
  C  C548  1  0.68190000  0.26480000  0.19600000  1
  C  C549  1  0.18190000  0.26480000  0.80400000  1
  C  C550  1  0.23670000  0.26590000  0.41810000  1
  C  C551  1  0.73670000  0.26590000  0.58190000  1
  C  C552  1  0.30320000  0.26700000  0.47990000  1
  C  C553  1  0.80320000  0.26700000  0.52010000  1
  C  C554  1  0.25150000  0.26870000  0.32930000  1
  C  C555  1  0.75150000  0.26870000  0.67070000  1
  C  C556  1  0.76490000  0.27170000  0.48590000  1
  C  C557  1  0.26490000  0.27170000  0.51410000  1
  C  C558  1  0.19770000  0.27390000  0.45400000  1
  C  C559  1  0.69770000  0.27390000  0.54600000  1
  C  C560  1  0.71360000  0.27720000  0.49780000  1
  C  C561  1  0.21360000  0.27720000  0.50220000  1
  C  C562  1  0.44610000  0.28530000  0.06520000  1
  C  C563  1  0.94610000  0.28530000  0.93480000  1
  C  C564  1  0.82900000  0.28650000  0.36950000  1
  C  C565  1  0.32900000  0.28650000  0.63050000  1
  C  C566  1  0.05160000  0.29180000  0.39100000  1
  C  C567  1  0.55160000  0.29180000  0.60900000  1
  C  C568  1  0.82860000  0.29360000  0.41840000  1
  C  C569  1  0.32860000  0.29360000  0.58160000  1
  C  C570  1  0.43110000  0.29600000  0.01810000  1
  C  C571  1  0.93110000  0.29600000  0.98190000  1
  C  C572  1  0.98230000  0.30010000  0.43510000  1
  C  C573  1  0.48230000  0.30010000  0.56490000  1
  C  C574  1  0.42250000  0.30710000  0.10410000  1
  C  C575  1  0.92250000  0.30710000  0.89590000  1
  C  C576  1  0.39120000  0.32860000  0.00900000  1
  C  C577  1  0.89120000  0.32860000  0.99100000  1
  C  C578  1  0.17790000  0.33070000  0.20170000  1
  C  C579  1  0.67790000  0.33070000  0.79830000  1
  C  C580  1  0.82880000  0.33810000  0.24270000  1
  C  C581  1  0.32880000  0.33810000  0.75730000  1
  C  C582  1  0.38250000  0.34300000  0.09440000  1
  C  C583  1  0.88250000  0.34300000  0.90560000  1
  C  C584  1  0.36810000  0.35290000  0.04850000  1
  C  C585  1  0.86810000  0.35290000  0.95150000  1
  C  C586  1  0.25360000  0.36100000  0.20380000  1
  C  C587  1  0.75360000  0.36100000  0.79620000  1
  C  C588  1  0.76040000  0.36290000  0.27880000  1
  C  C589  1  0.26040000  0.36290000  0.72120000  1
  C  C590  1  0.17190000  0.38260000  0.19920000  1
  C  C591  1  0.67190000  0.38260000  0.80080000  1
  C  C592  1  0.83030000  0.38760000  0.24030000  1
  C  C593  1  0.33030000  0.38760000  0.75970000  1
  C  C594  1  0.28400000  0.39400000  0.06900000  1
  C  C595  1  0.78400000  0.39400000  0.93100000  1
  C  C596  1  0.14910000  0.39570000  0.37670000  1
  C  C597  1  0.64910000  0.39570000  0.62330000  1
  C  C598  1  0.73010000  0.40210000  0.47520000  1
  C  C599  1  0.23010000  0.40210000  0.52480000  1
  C  C600  1  0.19930000  0.40340000  0.39480000  1
  C  C601  1  0.69930000  0.40340000  0.60520000  1
  C  C602  1  0.77230000  0.40650000  0.44330000  1
  C  C603  1  0.27230000  0.40650000  0.55670000  1
  C  C604  1  0.14110000  0.40990000  0.45310000  1
  C  C605  1  0.64110000  0.40990000  0.54690000  1
  C  C606  1  0.91580000  0.41760000  0.36280000  1
  C  C607  1  0.41580000  0.41760000  0.63720000  1
  C  C608  1  0.31910000  0.41950000  0.00370000  1
  C  C609  1  0.81910000  0.41950000  0.99630000  1
  C  C610  1  0.23570000  0.42000000  0.47660000  1
  C  C611  1  0.73570000  0.42000000  0.52340000  1
  C  C612  1  0.91550000  0.42340000  0.44100000  1
  C  C613  1  0.41550000  0.42340000  0.55900000  1
  C  C614  1  0.86560000  0.42460000  0.37660000  1
  C  C615  1  0.36560000  0.42460000  0.62340000  1
  C  C616  1  0.81920000  0.42850000  0.45830000  1
  C  C617  1  0.31920000  0.42850000  0.54170000  1
  C  C618  1  0.25300000  0.43360000  0.04080000  1
  C  C619  1  0.75300000  0.43360000  0.95920000  1
  C  C620  1  0.28150000  0.44340000  0.46260000  1
  C  C621  1  0.78150000  0.44340000  0.53740000  1
  C  C622  1  0.32390000  0.44730000  0.49570000  1
  C  C623  1  0.82390000  0.44730000  0.50430000  1
  C  C624  1  0.23570000  0.45200000  0.20020000  1
  C  C625  1  0.73570000  0.45200000  0.79980000  1
  C  C626  1  0.76660000  0.45260000  0.26690000  1
  C  C627  1  0.26660000  0.45260000  0.73310000  1
  C  C628  1  0.71370000  0.46190000  0.26780000  1
  C  C629  1  0.21370000  0.46190000  0.73220000  1
  C  C630  1  0.28470000  0.46600000  0.21050000  1
  C  C631  1  0.78470000  0.46600000  0.78950000  1
  C  C632  1  0.19960000  0.48510000  0.20320000  1
  C  C633  1  0.69960000  0.48510000  0.79680000  1
  C  C634  1  0.80270000  0.48920000  0.26790000  1
  C  C635  1  0.30270000  0.48920000  0.73210000  1
  C  C636  1  0.69730000  0.51080000  0.26790000  1
  C  C637  1  0.19730000  0.51080000  0.73210000  1
  C  C638  1  0.30040000  0.51490000  0.20320000  1
  C  C639  1  0.80040000  0.51490000  0.79680000  1
  C  C640  1  0.21530000  0.53400000  0.21050000  1
  C  C641  1  0.71530000  0.53400000  0.78950000  1
  C  C642  1  0.78630000  0.53810000  0.26780000  1
  C  C643  1  0.28630000  0.53810000  0.73220000  1
  C  C644  1  0.73340000  0.54740000  0.26690000  1
  C  C645  1  0.23340000  0.54740000  0.73310000  1
  C  C646  1  0.26430000  0.54800000  0.20020000  1
  C  C647  1  0.76430000  0.54800000  0.79980000  1
  C  C648  1  0.17610000  0.55270000  0.49570000  1
  C  C649  1  0.67610000  0.55270000  0.50430000  1
  C  C650  1  0.21850000  0.55660000  0.46260000  1
  C  C651  1  0.71850000  0.55660000  0.53740000  1
  C  C652  1  0.24700000  0.56640000  0.04080000  1
  C  C653  1  0.74700000  0.56640000  0.95920000  1
  C  C654  1  0.68080000  0.57150000  0.45830000  1
  C  C655  1  0.18080000  0.57150000  0.54170000  1
  C  C656  1  0.63440000  0.57540000  0.37660000  1
  C  C657  1  0.13440000  0.57540000  0.62340000  1
  C  C658  1  0.58450000  0.57660000  0.44100000  1
  C  C659  1  0.08450000  0.57660000  0.55900000  1
  C  C660  1  0.26430000  0.58000000  0.47660000  1
  C  C661  1  0.76430000  0.58000000  0.52340000  1
  C  C662  1  0.18090000  0.58050000  0.00370000  1
  C  C663  1  0.68090000  0.58050000  0.99630000  1
  C  C664  1  0.58420000  0.58240000  0.36280000  1
  C  C665  1  0.08420000  0.58240000  0.63720000  1
  C  C666  1  0.35890000  0.59010000  0.45310000  1
  C  C667  1  0.85890000  0.59010000  0.54690000  1
  C  C668  1  0.72770000  0.59350000  0.44330000  1
  C  C669  1  0.22770000  0.59350000  0.55670000  1
  C  C670  1  0.30070000  0.59660000  0.39480000  1
  C  C671  1  0.80070000  0.59660000  0.60520000  1
  C  C672  1  0.76990000  0.59790000  0.47520000  1
  C  C673  1  0.26990000  0.59790000  0.52480000  1
  C  C674  1  0.35090000  0.60430000  0.37670000  1
  C  C675  1  0.85090000  0.60430000  0.62330000  1
  C  C676  1  0.21600000  0.60600000  0.06900000  1
  C  C677  1  0.71600000  0.60600000  0.93100000  1
  C  C678  1  0.66970000  0.61240000  0.24030000  1
  C  C679  1  0.16970000  0.61240000  0.75970000  1
  C  C680  1  0.32810000  0.61740000  0.19920000  1
  C  C681  1  0.82810000  0.61740000  0.80080000  1
  C  C682  1  0.73960000  0.63710000  0.27880000  1
  C  C683  1  0.23960000  0.63710000  0.72120000  1
  C  C684  1  0.24640000  0.63900000  0.20380000  1
  C  C685  1  0.74640000  0.63900000  0.79620000  1
  C  C686  1  0.13190000  0.64710000  0.04850000  1
  C  C687  1  0.63190000  0.64710000  0.95150000  1
  C  C688  1  0.11750000  0.65700000  0.09440000  1
  C  C689  1  0.61750000  0.65700000  0.90560000  1
  C  C690  1  0.67120000  0.66190000  0.24270000  1
  C  C691  1  0.17120000  0.66190000  0.75730000  1
  C  C692  1  0.32210000  0.66930000  0.20170000  1
  C  C693  1  0.82210000  0.66930000  0.79830000  1
  C  C694  1  0.10880000  0.67140000  0.00900000  1
  C  C695  1  0.60880000  0.67140000  0.99100000  1
  C  C696  1  0.07750000  0.69290000  0.10410000  1
  C  C697  1  0.57750000  0.69290000  0.89590000  1
  C  C698  1  0.51770000  0.69990000  0.43510000  1
  C  C699  1  0.01770000  0.69990000  0.56490000  1
  C  C700  1  0.06890000  0.70400000  0.01810000  1
  C  C701  1  0.56890000  0.70400000  0.98190000  1
  C  C702  1  0.67140000  0.70640000  0.41840000  1
  C  C703  1  0.17140000  0.70640000  0.58160000  1
  C  C704  1  0.44840000  0.70820000  0.39100000  1
  C  C705  1  0.94840000  0.70820000  0.60900000  1
  C  C706  1  0.67100000  0.71350000  0.36950000  1
  C  C707  1  0.17100000  0.71350000  0.63050000  1
  C  C708  1  0.05390000  0.71470000  0.06520000  1
  C  C709  1  0.55390000  0.71470000  0.93480000  1
  C  C710  1  0.78640000  0.72280000  0.49780000  1
  C  C711  1  0.28640000  0.72280000  0.50220000  1
  C  C712  1  0.30230000  0.72610000  0.45400000  1
  C  C713  1  0.80230000  0.72610000  0.54600000  1
  C  C714  1  0.73510000  0.72830000  0.48590000  1
  C  C715  1  0.23510000  0.72830000  0.51410000  1
  C  C716  1  0.24850000  0.73130000  0.32930000  1
  C  C717  1  0.74850000  0.73130000  0.67070000  1
  C  C718  1  0.19680000  0.73300000  0.47990000  1
  C  C719  1  0.69680000  0.73300000  0.52010000  1
  C  C720  1  0.26330000  0.73410000  0.41810000  1
  C  C721  1  0.76330000  0.73410000  0.58190000  1
  C  C722  1  0.81810000  0.73520000  0.19600000  1
  C  C723  1  0.31810000  0.73520000  0.80400000  1
  C  C724  1  0.21110000  0.73650000  0.43100000  1
  C  C725  1  0.71110000  0.73650000  0.56900000  1
  C  C726  1  0.82400000  0.73770000  0.14680000  1
  C  C727  1  0.32400000  0.73770000  0.85320000  1
  C  C728  1  0.74390000  0.74310000  0.39600000  1
  C  C729  1  0.24390000  0.74310000  0.60400000  1
  C  C730  1  0.96900000  0.74520000  0.10300000  1
  C  C731  1  0.46900000  0.74520000  0.89700000  1
  C  C732  1  0.46900000  0.75480000  0.39700000  1
  C  C733  1  0.96900000  0.75480000  0.60300000  1
  C  C734  1  0.24390000  0.75690000  0.10400000  1
  C  C735  1  0.74390000  0.75690000  0.89600000  1
  C  C736  1  0.32400000  0.76230000  0.35320000  1
  C  C737  1  0.82400000  0.76230000  0.64680000  1
  C  C738  1  0.71110000  0.76350000  0.06900000  1
  C  C739  1  0.21110000  0.76350000  0.93100000  1
  C  C740  1  0.31810000  0.76480000  0.30400000  1
  C  C741  1  0.81810000  0.76480000  0.69600000  1
  C  C742  1  0.76330000  0.76590000  0.08190000  1
  C  C743  1  0.26330000  0.76590000  0.91810000  1
  C  C744  1  0.69680000  0.76700000  0.02010000  1
  C  C745  1  0.19680000  0.76700000  0.97990000  1
  C  C746  1  0.74850000  0.76870000  0.17070000  1
  C  C747  1  0.24850000  0.76870000  0.82930000  1
  C  C748  1  0.23510000  0.77170000  0.01410000  1
  C  C749  1  0.73510000  0.77170000  0.98590000  1
  C  C750  1  0.80230000  0.77390000  0.04600000  1
  C  C751  1  0.30230000  0.77390000  0.95400000  1
  C  C752  1  0.28640000  0.77720000  0.00220000  1
  C  C753  1  0.78640000  0.77720000  0.99780000  1
  C  C754  1  0.55390000  0.78530000  0.43480000  1
  C  C755  1  0.05390000  0.78530000  0.56520000  1
  C  C756  1  0.17100000  0.78650000  0.13050000  1
  C  C757  1  0.67100000  0.78650000  0.86950000  1
  C  C758  1  0.94840000  0.79180000  0.10900000  1
  C  C759  1  0.44840000  0.79180000  0.89100000  1
  C  C760  1  0.17140000  0.79360000  0.08160000  1
  C  C761  1  0.67140000  0.79360000  0.91840000  1
  C  C762  1  0.56890000  0.79600000  0.48190000  1
  C  C763  1  0.06890000  0.79600000  0.51810000  1
  C  C764  1  0.01770000  0.80010000  0.06490000  1
  C  C765  1  0.51770000  0.80010000  0.93510000  1
  C  C766  1  0.57750000  0.80710000  0.39590000  1
  C  C767  1  0.07750000  0.80710000  0.60410000  1
  C  C768  1  0.60880000  0.82860000  0.49100000  1
  C  C769  1  0.10880000  0.82860000  0.50900000  1
  C  C770  1  0.82210000  0.83070000  0.29830000  1
  C  C771  1  0.32210000  0.83070000  0.70170000  1
  C  C772  1  0.17120000  0.83810000  0.25730000  1
  C  C773  1  0.67120000  0.83810000  0.74270000  1
  C  C774  1  0.61750000  0.84300000  0.40560000  1
  C  C775  1  0.11750000  0.84300000  0.59440000  1
  C  C776  1  0.63190000  0.85290000  0.45150000  1
  C  C777  1  0.13190000  0.85290000  0.54850000  1
  C  C778  1  0.74640000  0.86100000  0.29620000  1
  C  C779  1  0.24640000  0.86100000  0.70380000  1
  C  C780  1  0.23960000  0.86290000  0.22120000  1
  C  C781  1  0.73960000  0.86290000  0.77880000  1
  C  C782  1  0.82810000  0.88260000  0.30080000  1
  C  C783  1  0.32810000  0.88260000  0.69920000  1
  C  C784  1  0.16970000  0.88760000  0.25970000  1
  C  C785  1  0.66970000  0.88760000  0.74030000  1
  C  C786  1  0.71600000  0.89400000  0.43100000  1
  C  C787  1  0.21600000  0.89400000  0.56900000  1
  C  C788  1  0.85090000  0.89570000  0.12330000  1
  C  C789  1  0.35090000  0.89570000  0.87670000  1
  C  C790  1  0.26990000  0.90210000  0.02480000  1
  C  C791  1  0.76990000  0.90210000  0.97520000  1
  C  C792  1  0.80070000  0.90340000  0.10520000  1
  C  C793  1  0.30070000  0.90340000  0.89480000  1
  C  C794  1  0.22770000  0.90650000  0.05670000  1
  C  C795  1  0.72770000  0.90650000  0.94330000  1
  C  C796  1  0.85890000  0.90990000  0.04690000  1
  C  C797  1  0.35890000  0.90990000  0.95310000  1
  C  C798  1  0.08420000  0.91760000  0.13720000  1
  C  C799  1  0.58420000  0.91760000  0.86280000  1
  C  C800  1  0.68090000  0.91950000  0.49630000  1
  C  C801  1  0.18090000  0.91950000  0.50370000  1
  C  C802  1  0.76430000  0.92000000  0.02340000  1
  C  C803  1  0.26430000  0.92000000  0.97660000  1
  C  C804  1  0.08450000  0.92340000  0.05900000  1
  C  C805  1  0.58450000  0.92340000  0.94100000  1
  C  C806  1  0.13440000  0.92460000  0.12340000  1
  C  C807  1  0.63440000  0.92460000  0.87660000  1
  C  C808  1  0.18080000  0.92850000  0.04170000  1
  C  C809  1  0.68080000  0.92850000  0.95830000  1
  C  C810  1  0.74700000  0.93360000  0.45920000  1
  C  C811  1  0.24700000  0.93360000  0.54080000  1
  C  C812  1  0.71850000  0.94340000  0.03740000  1
  C  C813  1  0.21850000  0.94340000  0.96260000  1
  C  C814  1  0.67610000  0.94730000  0.00430000  1
  C  C815  1  0.17610000  0.94730000  0.99570000  1
  C  C816  1  0.76430000  0.95200000  0.29980000  1
  C  C817  1  0.26430000  0.95200000  0.70020000  1
  C  C818  1  0.23340000  0.95260000  0.23310000  1
  C  C819  1  0.73340000  0.95260000  0.76690000  1
  C  C820  1  0.28630000  0.96190000  0.23220000  1
  C  C821  1  0.78630000  0.96190000  0.76780000  1
  C  C822  1  0.71530000  0.96600000  0.28950000  1
  C  C823  1  0.21530000  0.96600000  0.71050000  1
  C  C824  1  0.80040000  0.98510000  0.29680000  1
  C  C825  1  0.30040000  0.98510000  0.70320000  1
  C  C826  1  0.19730000  0.98920000  0.23210000  1
  C  C827  1  0.69730000  0.98920000  0.76790000  1
  N  N828  1  0.78160000  0.04990000  0.49610000  1
  N  N829  1  0.28160000  0.04990000  0.50390000  1
  N  N830  1  0.36350000  0.07150000  0.07390000  1
  N  N831  1  0.86350000  0.07150000  0.92610000  1
  N  N832  1  0.44780000  0.08360000  0.09470000  1
  N  N833  1  0.94780000  0.08360000  0.90530000  1
  N  N834  1  0.69380000  0.08800000  0.05720000  1
  N  N835  1  0.19380000  0.08800000  0.94280000  1
  N  N836  1  0.28610000  0.09670000  0.23750000  1
  N  N837  1  0.78610000  0.09670000  0.76250000  1
  N  N838  1  0.61310000  0.09850000  0.08580000  1
  N  N839  1  0.11310000  0.09850000  0.91420000  1
  N  N840  1  0.72250000  0.09930000  0.30050000  1
  N  N841  1  0.22250000  0.09930000  0.69950000  1
  N  N842  1  0.82350000  0.11220000  0.46090000  1
  N  N843  1  0.32350000  0.11220000  0.53910000  1
  N  N844  1  0.52170000  0.17580000  0.08460000  1
  N  N845  1  0.02170000  0.17580000  0.91540000  1
  N  N846  1  0.28460000  0.17720000  0.23300000  1
  N  N847  1  0.78460000  0.17720000  0.76700000  1
  N  N848  1  0.72800000  0.18030000  0.29720000  1
  N  N849  1  0.22800000  0.18030000  0.70280000  1
  N  N850  1  0.28190000  0.22570000  0.06490000  1
  N  N851  1  0.78190000  0.22570000  0.93510000  1
  N  N852  1  0.28280000  0.23710000  0.14430000  1
  N  N853  1  0.78280000  0.23710000  0.85570000  1
  N  N854  1  0.72170000  0.23980000  0.13180000  1
  N  N855  1  0.22170000  0.23980000  0.86820000  1
  N  N856  1  0.72860000  0.24470000  0.21110000  1
  N  N857  1  0.22860000  0.24470000  0.78890000  1
  N  N858  1  0.48470000  0.24810000  0.07550000  1
  N  N859  1  0.98470000  0.24810000  0.92450000  1
  N  N860  1  0.98470000  0.25190000  0.42450000  1
  N  N861  1  0.48470000  0.25190000  0.57550000  1
  N  N862  1  0.22860000  0.25530000  0.28890000  1
  N  N863  1  0.72860000  0.25530000  0.71110000  1
  N  N864  1  0.22170000  0.26020000  0.36820000  1
  N  N865  1  0.72170000  0.26020000  0.63180000  1
  N  N866  1  0.78280000  0.26290000  0.35570000  1
  N  N867  1  0.28280000  0.26290000  0.64430000  1
  N  N868  1  0.78190000  0.27430000  0.43510000  1
  N  N869  1  0.28190000  0.27430000  0.56490000  1
  N  N870  1  0.22800000  0.31970000  0.20280000  1
  N  N871  1  0.72800000  0.31970000  0.79720000  1
  N  N872  1  0.78460000  0.32280000  0.26700000  1
  N  N873  1  0.28460000  0.32280000  0.73300000  1
  N  N874  1  0.02170000  0.32420000  0.41540000  1
  N  N875  1  0.52170000  0.32420000  0.58460000  1
  N  N876  1  0.32350000  0.38780000  0.03910000  1
  N  N877  1  0.82350000  0.38780000  0.96090000  1
  N  N878  1  0.22250000  0.40070000  0.19950000  1
  N  N879  1  0.72250000  0.40070000  0.80050000  1
  N  N880  1  0.11310000  0.40150000  0.41420000  1
  N  N881  1  0.61310000  0.40150000  0.58580000  1
  N  N882  1  0.78610000  0.40330000  0.26250000  1
  N  N883  1  0.28610000  0.40330000  0.73750000  1
  N  N884  1  0.19380000  0.41200000  0.44280000  1
  N  N885  1  0.69380000  0.41200000  0.55720000  1
  N  N886  1  0.94780000  0.41640000  0.40530000  1
  N  N887  1  0.44780000  0.41640000  0.59470000  1
  N  N888  1  0.86350000  0.42850000  0.42610000  1
  N  N889  1  0.36350000  0.42850000  0.57390000  1
  N  N890  1  0.28160000  0.45010000  0.00390000  1
  N  N891  1  0.78160000  0.45010000  0.99610000  1
  N  N892  1  0.21840000  0.54990000  0.00390000  1
  N  N893  1  0.71840000  0.54990000  0.99610000  1
  N  N894  1  0.63650000  0.57150000  0.42610000  1
  N  N895  1  0.13650000  0.57150000  0.57390000  1
  N  N896  1  0.55220000  0.58360000  0.40530000  1
  N  N897  1  0.05220000  0.58360000  0.59470000  1
  N  N898  1  0.30620000  0.58800000  0.44280000  1
  N  N899  1  0.80620000  0.58800000  0.55720000  1
  N  N900  1  0.71390000  0.59670000  0.26250000  1
  N  N901  1  0.21390000  0.59670000  0.73750000  1
  N  N902  1  0.38690000  0.59850000  0.41420000  1
  N  N903  1  0.88690000  0.59850000  0.58580000  1
  N  N904  1  0.27750000  0.59930000  0.19950000  1
  N  N905  1  0.77750000  0.59930000  0.80050000  1
  N  N906  1  0.17650000  0.61220000  0.03910000  1
  N  N907  1  0.67650000  0.61220000  0.96090000  1
  N  N908  1  0.47830000  0.67580000  0.41540000  1
  N  N909  1  0.97830000  0.67580000  0.58460000  1
  N  N910  1  0.71540000  0.67720000  0.26700000  1
  N  N911  1  0.21540000  0.67720000  0.73300000  1
  N  N912  1  0.27200000  0.68030000  0.20280000  1
  N  N913  1  0.77200000  0.68030000  0.79720000  1
  N  N914  1  0.71810000  0.72570000  0.43510000  1
  N  N915  1  0.21810000  0.72570000  0.56490000  1
  N  N916  1  0.71720000  0.73710000  0.35570000  1
  N  N917  1  0.21720000  0.73710000  0.64430000  1
  N  N918  1  0.27830000  0.73980000  0.36820000  1
  N  N919  1  0.77830000  0.73980000  0.63180000  1
  N  N920  1  0.27140000  0.74470000  0.28890000  1
  N  N921  1  0.77140000  0.74470000  0.71110000  1
  N  N922  1  0.51530000  0.74810000  0.42450000  1
  N  N923  1  0.01530000  0.74810000  0.57550000  1
  N  N924  1  0.01530000  0.75190000  0.07550000  1
  N  N925  1  0.51530000  0.75190000  0.92450000  1
  N  N926  1  0.77140000  0.75530000  0.21110000  1
  N  N927  1  0.27140000  0.75530000  0.78890000  1
  N  N928  1  0.77830000  0.76020000  0.13180000  1
  N  N929  1  0.27830000  0.76020000  0.86820000  1
  N  N930  1  0.21720000  0.76290000  0.14430000  1
  N  N931  1  0.71720000  0.76290000  0.85570000  1
  N  N932  1  0.21810000  0.77430000  0.06490000  1
  N  N933  1  0.71810000  0.77430000  0.93510000  1
  N  N934  1  0.77200000  0.81970000  0.29720000  1
  N  N935  1  0.27200000  0.81970000  0.70280000  1
  N  N936  1  0.21540000  0.82280000  0.23300000  1
  N  N937  1  0.71540000  0.82280000  0.76700000  1
  N  N938  1  0.97830000  0.82420000  0.08460000  1
  N  N939  1  0.47830000  0.82420000  0.91540000  1
  N  N940  1  0.67650000  0.88780000  0.46090000  1
  N  N941  1  0.17650000  0.88780000  0.53910000  1
  N  N942  1  0.77750000  0.90070000  0.30050000  1
  N  N943  1  0.27750000  0.90070000  0.69950000  1
  N  N944  1  0.88690000  0.90150000  0.08580000  1
  N  N945  1  0.38690000  0.90150000  0.91420000  1
  N  N946  1  0.21390000  0.90330000  0.23750000  1
  N  N947  1  0.71390000  0.90330000  0.76250000  1
  N  N948  1  0.80620000  0.91200000  0.05720000  1
  N  N949  1  0.30620000  0.91200000  0.94280000  1
  N  N950  1  0.05220000  0.91640000  0.09470000  1
  N  N951  1  0.55220000  0.91640000  0.90530000  1
  N  N952  1  0.13650000  0.92850000  0.07390000  1
  N  N953  1  0.63650000  0.92850000  0.92610000  1
  N  N954  1  0.71840000  0.95010000  0.49610000  1
  N  N955  1  0.21840000  0.95010000  0.50390000  1
  O  O956  1  0.53600000  0.01960000  0.08610000  1
  O  O957  1  0.03600000  0.01960000  0.91390000  1
  O  O958  1  0.99280000  0.02190000  0.17560000  1
  O  O959  1  0.49280000  0.02190000  0.82440000  1
  O  O960  1  0.98150000  0.03270000  0.27090000  1
  O  O961  1  0.48150000  0.03270000  0.72910000  1
  O  O962  1  0.89580000  0.03870000  0.14040000  1
  O  O963  1  0.39580000  0.03870000  0.85960000  1
  O  O964  1  0.08920000  0.05580000  0.17850000  1
  O  O965  1  0.58920000  0.05580000  0.82150000  1
  O  O966  1  0.03510000  0.05920000  0.09800000  1
  O  O967  1  0.53510000  0.05920000  0.90200000  1
  O  O968  1  0.07930000  0.06960000  0.27550000  1
  O  O969  1  0.57930000  0.06960000  0.72450000  1
  O  O970  1  0.89690000  0.07640000  0.22990000  1
  O  O971  1  0.39690000  0.07640000  0.77010000  1
  O  O972  1  0.93910000  0.07790000  0.06190000  1
  O  O973  1  0.43910000  0.07790000  0.93810000  1
  O  O974  1  0.00530000  0.11410000  0.22510000  1
  O  O975  1  0.50530000  0.11410000  0.77490000  1
  O  O976  1  0.99970000  0.11510000  0.31990000  1
  O  O977  1  0.49970000  0.11510000  0.68010000  1
  O  O978  1  0.95480000  0.11700000  0.14630000  1
  O  O979  1  0.45480000  0.11700000  0.85370000  1
  O  O980  1  0.86080000  0.12420000  0.10660000  1
  O  O981  1  0.36080000  0.12420000  0.89340000  1
  O  O982  1  0.14720000  0.13260000  0.15030000  1
  O  O983  1  0.64720000  0.13260000  0.84970000  1
  O  O984  1  0.09390000  0.13540000  0.06760000  1
  O  O985  1  0.59390000  0.13540000  0.93240000  1
  O  O986  1  0.04650000  0.15270000  0.15150000  1
  O  O987  1  0.54650000  0.15270000  0.84850000  1
  O  O988  1  0.10950000  0.15580000  0.23810000  1
  O  O989  1  0.60950000  0.15580000  0.76190000  1
  O  O990  1  0.91540000  0.15610000  0.27740000  1
  O  O991  1  0.41540000  0.15610000  0.72260000  1
  O  O992  1  0.86360000  0.15870000  0.19640000  1
  O  O993  1  0.36360000  0.15870000  0.80360000  1
  O  O994  1  0.99290000  0.16170000  0.05660000  1
  O  O995  1  0.49290000  0.16170000  0.94340000  1
  O  O996  1  0.97090000  0.19460000  0.19350000  1
  O  O997  1  0.47090000  0.19460000  0.80650000  1
  O  O998  1  0.03320000  0.20110000  0.28280000  1
  O  O999  1  0.53320000  0.20110000  0.71720000  1
  O  O1000  1  0.91580000  0.20760000  0.10020000  1
  O  O1001  1  0.41580000  0.20760000  0.89980000  1
  O  O1002  1  0.48700000  0.21050000  0.31240000  1
  O  O1003  1  0.98700000  0.21050000  0.68760000  1
  O  O1004  1  0.11240000  0.21720000  0.11610000  1
  O  O1005  1  0.61240000  0.21720000  0.88390000  1
  O  O1006  1  0.18230000  0.21890000  0.19390000  1
  O  O1007  1  0.68230000  0.21890000  0.80610000  1
  O  O1008  1  0.83530000  0.22590000  0.26740000  1
  O  O1009  1  0.33530000  0.22590000  0.73260000  1
  O  O1010  1  0.07480000  0.23880000  0.20490000  1
  O  O1011  1  0.57480000  0.23880000  0.79510000  1
  O  O1012  1  0.01040000  0.24240000  0.10390000  1
  O  O1013  1  0.51040000  0.24240000  0.89610000  1
  O  O1014  1  0.39090000  0.24770000  0.31650000  1
  O  O1015  1  0.89090000  0.24770000  0.68350000  1
  O  O1016  1  0.94350000  0.24990000  0.26620000  1
  O  O1017  1  0.44350000  0.24990000  0.73380000  1
  O  O1018  1  0.44350000  0.25010000  0.23380000  1
  O  O1019  1  0.94350000  0.25010000  0.76620000  1
  O  O1020  1  0.89090000  0.25230000  0.18350000  1
  O  O1021  1  0.39090000  0.25230000  0.81650000  1
  O  O1022  1  0.51040000  0.25760000  0.39610000  1
  O  O1023  1  0.01040000  0.25760000  0.60390000  1
  O  O1024  1  0.57480000  0.26120000  0.29510000  1
  O  O1025  1  0.07480000  0.26120000  0.70490000  1
  O  O1026  1  0.33530000  0.27410000  0.23260000  1
  O  O1027  1  0.83530000  0.27410000  0.76740000  1
  O  O1028  1  0.68230000  0.28110000  0.30610000  1
  O  O1029  1  0.18230000  0.28110000  0.69390000  1
  O  O1030  1  0.61240000  0.28280000  0.38390000  1
  O  O1031  1  0.11240000  0.28280000  0.61610000  1
  O  O1032  1  0.98700000  0.28950000  0.18760000  1
  O  O1033  1  0.48700000  0.28950000  0.81240000  1
  O  O1034  1  0.41580000  0.29240000  0.39980000  1
  O  O1035  1  0.91580000  0.29240000  0.60020000  1
  O  O1036  1  0.53320000  0.29890000  0.21720000  1
  O  O1037  1  0.03320000  0.29890000  0.78280000  1
  O  O1038  1  0.47090000  0.30540000  0.30650000  1
  O  O1039  1  0.97090000  0.30540000  0.69350000  1
  O  O1040  1  0.49290000  0.33830000  0.44340000  1
  O  O1041  1  0.99290000  0.33830000  0.55660000  1
  O  O1042  1  0.36360000  0.34130000  0.30360000  1
  O  O1043  1  0.86360000  0.34130000  0.69640000  1
  O  O1044  1  0.41540000  0.34390000  0.22260000  1
  O  O1045  1  0.91540000  0.34390000  0.77740000  1
  O  O1046  1  0.60950000  0.34420000  0.26190000  1
  O  O1047  1  0.10950000  0.34420000  0.73810000  1
  O  O1048  1  0.54650000  0.34730000  0.34850000  1
  O  O1049  1  0.04650000  0.34730000  0.65150000  1
  O  O1050  1  0.59390000  0.36460000  0.43240000  1
  O  O1051  1  0.09390000  0.36460000  0.56760000  1
  O  O1052  1  0.64720000  0.36740000  0.34970000  1
  O  O1053  1  0.14720000  0.36740000  0.65030000  1
  O  O1054  1  0.36080000  0.37580000  0.39340000  1
  O  O1055  1  0.86080000  0.37580000  0.60660000  1
  O  O1056  1  0.45480000  0.38300000  0.35370000  1
  O  O1057  1  0.95480000  0.38300000  0.64630000  1
  O  O1058  1  0.49970000  0.38490000  0.18010000  1
  O  O1059  1  0.99970000  0.38490000  0.81990000  1
  O  O1060  1  0.50530000  0.38590000  0.27490000  1
  O  O1061  1  0.00530000  0.38590000  0.72510000  1
  O  O1062  1  0.43910000  0.42210000  0.43810000  1
  O  O1063  1  0.93910000  0.42210000  0.56190000  1
  O  O1064  1  0.39690000  0.42360000  0.27010000  1
  O  O1065  1  0.89690000  0.42360000  0.72990000  1
  O  O1066  1  0.57930000  0.43040000  0.22450000  1
  O  O1067  1  0.07930000  0.43040000  0.77550000  1
  O  O1068  1  0.53510000  0.44080000  0.40200000  1
  O  O1069  1  0.03510000  0.44080000  0.59800000  1
  O  O1070  1  0.58920000  0.44420000  0.32150000  1
  O  O1071  1  0.08920000  0.44420000  0.67850000  1
  O  O1072  1  0.39580000  0.46130000  0.35960000  1
  O  O1073  1  0.89580000  0.46130000  0.64040000  1
  O  O1074  1  0.48150000  0.46730000  0.22910000  1
  O  O1075  1  0.98150000  0.46730000  0.77090000  1
  O  O1076  1  0.49280000  0.47810000  0.32440000  1
  O  O1077  1  0.99280000  0.47810000  0.67560000  1
  O  O1078  1  0.03600000  0.48040000  0.41390000  1
  O  O1079  1  0.53600000  0.48040000  0.58610000  1
  O  O1080  1  0.46400000  0.51960000  0.41390000  1
  O  O1081  1  0.96400000  0.51960000  0.58610000  1
  O  O1082  1  0.00720000  0.52190000  0.32440000  1
  O  O1083  1  0.50720000  0.52190000  0.67560000  1
  O  O1084  1  0.01850000  0.53270000  0.22910000  1
  O  O1085  1  0.51850000  0.53270000  0.77090000  1
  O  O1086  1  0.10420000  0.53870000  0.35960000  1
  O  O1087  1  0.60420000  0.53870000  0.64040000  1
  O  O1088  1  0.91080000  0.55580000  0.32150000  1
  O  O1089  1  0.41080000  0.55580000  0.67850000  1
  O  O1090  1  0.96490000  0.55920000  0.40200000  1
  O  O1091  1  0.46490000  0.55920000  0.59800000  1
  O  O1092  1  0.92070000  0.56960000  0.22450000  1
  O  O1093  1  0.42070000  0.56960000  0.77550000  1
  O  O1094  1  0.10310000  0.57640000  0.27010000  1
  O  O1095  1  0.60310000  0.57640000  0.72990000  1
  O  O1096  1  0.06090000  0.57790000  0.43810000  1
  O  O1097  1  0.56090000  0.57790000  0.56190000  1
  O  O1098  1  0.99470000  0.61410000  0.27490000  1
  O  O1099  1  0.49470000  0.61410000  0.72510000  1
  O  O1100  1  0.00030000  0.61510000  0.18010000  1
  O  O1101  1  0.50030000  0.61510000  0.81990000  1
  O  O1102  1  0.04520000  0.61700000  0.35370000  1
  O  O1103  1  0.54520000  0.61700000  0.64630000  1
  O  O1104  1  0.13920000  0.62420000  0.39340000  1
  O  O1105  1  0.63920000  0.62420000  0.60660000  1
  O  O1106  1  0.85280000  0.63260000  0.34970000  1
  O  O1107  1  0.35280000  0.63260000  0.65030000  1
  O  O1108  1  0.90610000  0.63540000  0.43240000  1
  O  O1109  1  0.40610000  0.63540000  0.56760000  1
  O  O1110  1  0.95350000  0.65270000  0.34850000  1
  O  O1111  1  0.45350000  0.65270000  0.65150000  1
  O  O1112  1  0.89050000  0.65580000  0.26190000  1
  O  O1113  1  0.39050000  0.65580000  0.73810000  1
  O  O1114  1  0.08460000  0.65610000  0.22260000  1
  O  O1115  1  0.58460000  0.65610000  0.77740000  1
  O  O1116  1  0.13640000  0.65870000  0.30360000  1
  O  O1117  1  0.63640000  0.65870000  0.69640000  1
  O  O1118  1  0.00710000  0.66170000  0.44340000  1
  O  O1119  1  0.50710000  0.66170000  0.55660000  1
  O  O1120  1  0.02910000  0.69460000  0.30650000  1
  O  O1121  1  0.52910000  0.69460000  0.69350000  1
  O  O1122  1  0.96680000  0.70110000  0.21720000  1
  O  O1123  1  0.46680000  0.70110000  0.78280000  1
  O  O1124  1  0.08420000  0.70760000  0.39980000  1
  O  O1125  1  0.58420000  0.70760000  0.60020000  1
  O  O1126  1  0.51300000  0.71050000  0.18760000  1
  O  O1127  1  0.01300000  0.71050000  0.81240000  1
  O  O1128  1  0.88760000  0.71720000  0.38390000  1
  O  O1129  1  0.38760000  0.71720000  0.61610000  1
  O  O1130  1  0.81770000  0.71890000  0.30610000  1
  O  O1131  1  0.31770000  0.71890000  0.69390000  1
  O  O1132  1  0.16470000  0.72590000  0.23260000  1
  O  O1133  1  0.66470000  0.72590000  0.76740000  1
  O  O1134  1  0.92520000  0.73880000  0.29510000  1
  O  O1135  1  0.42520000  0.73880000  0.70490000  1
  O  O1136  1  0.98960000  0.74240000  0.39610000  1
  O  O1137  1  0.48960000  0.74240000  0.60390000  1
  O  O1138  1  0.60910000  0.74770000  0.18350000  1
  O  O1139  1  0.10910000  0.74770000  0.81650000  1
  O  O1140  1  0.05650000  0.74990000  0.23380000  1
  O  O1141  1  0.55650000  0.74990000  0.76620000  1
  O  O1142  1  0.55650000  0.75010000  0.26620000  1
  O  O1143  1  0.05650000  0.75010000  0.73380000  1
  O  O1144  1  0.10910000  0.75230000  0.31650000  1
  O  O1145  1  0.60910000  0.75230000  0.68350000  1
  O  O1146  1  0.48960000  0.75760000  0.10390000  1
  O  O1147  1  0.98960000  0.75760000  0.89610000  1
  O  O1148  1  0.42520000  0.76120000  0.20490000  1
  O  O1149  1  0.92520000  0.76120000  0.79510000  1
  O  O1150  1  0.66470000  0.77410000  0.26740000  1
  O  O1151  1  0.16470000  0.77410000  0.73260000  1
  O  O1152  1  0.31770000  0.78110000  0.19390000  1
  O  O1153  1  0.81770000  0.78110000  0.80610000  1
  O  O1154  1  0.38760000  0.78280000  0.11610000  1
  O  O1155  1  0.88760000  0.78280000  0.88390000  1
  O  O1156  1  0.01300000  0.78950000  0.31240000  1
  O  O1157  1  0.51300000  0.78950000  0.68760000  1
  O  O1158  1  0.58420000  0.79240000  0.10020000  1
  O  O1159  1  0.08420000  0.79240000  0.89980000  1
  O  O1160  1  0.46680000  0.79890000  0.28280000  1
  O  O1161  1  0.96680000  0.79890000  0.71720000  1
  O  O1162  1  0.52910000  0.80540000  0.19350000  1
  O  O1163  1  0.02910000  0.80540000  0.80650000  1
  O  O1164  1  0.50710000  0.83830000  0.05660000  1
  O  O1165  1  0.00710000  0.83830000  0.94340000  1
  O  O1166  1  0.63640000  0.84130000  0.19640000  1
  O  O1167  1  0.13640000  0.84130000  0.80360000  1
  O  O1168  1  0.58460000  0.84390000  0.27740000  1
  O  O1169  1  0.08460000  0.84390000  0.72260000  1
  O  O1170  1  0.39050000  0.84420000  0.23810000  1
  O  O1171  1  0.89050000  0.84420000  0.76190000  1
  O  O1172  1  0.45350000  0.84730000  0.15150000  1
  O  O1173  1  0.95350000  0.84730000  0.84850000  1
  O  O1174  1  0.40610000  0.86460000  0.06760000  1
  O  O1175  1  0.90610000  0.86460000  0.93240000  1
  O  O1176  1  0.35280000  0.86740000  0.15030000  1
  O  O1177  1  0.85280000  0.86740000  0.84970000  1
  O  O1178  1  0.63920000  0.87580000  0.10660000  1
  O  O1179  1  0.13920000  0.87580000  0.89340000  1
  O  O1180  1  0.54520000  0.88300000  0.14630000  1
  O  O1181  1  0.04520000  0.88300000  0.85370000  1
  O  O1182  1  0.50030000  0.88490000  0.31990000  1
  O  O1183  1  0.00030000  0.88490000  0.68010000  1
  O  O1184  1  0.49470000  0.88590000  0.22510000  1
  O  O1185  1  0.99470000  0.88590000  0.77490000  1
  O  O1186  1  0.56090000  0.92210000  0.06190000  1
  O  O1187  1  0.06090000  0.92210000  0.93810000  1
  O  O1188  1  0.60310000  0.92360000  0.22990000  1
  O  O1189  1  0.10310000  0.92360000  0.77010000  1
  O  O1190  1  0.42070000  0.93040000  0.27550000  1
  O  O1191  1  0.92070000  0.93040000  0.72450000  1
  O  O1192  1  0.46490000  0.94080000  0.09800000  1
  O  O1193  1  0.96490000  0.94080000  0.90200000  1
  O  O1194  1  0.41080000  0.94420000  0.17850000  1
  O  O1195  1  0.91080000  0.94420000  0.82150000  1
  O  O1196  1  0.60420000  0.96130000  0.14040000  1
  O  O1197  1  0.10420000  0.96130000  0.85960000  1
  O  O1198  1  0.51850000  0.96730000  0.27090000  1
  O  O1199  1  0.01850000  0.96730000  0.72910000  1
  O  O1200  1  0.50720000  0.97810000  0.17560000  1
  O  O1201  1  0.00720000  0.97810000  0.82440000  1
  O  O1202  1  0.96400000  0.98040000  0.08610000  1
  O  O1203  1  0.46400000  0.98040000  0.91390000  1
