# generated using pymatgen
data_Zn2H10C22S(NO5)2
_symmetry_space_group_name_H-M   'P 1'
_cell_length_a   10.24600000
_cell_length_b   16.14700000
_cell_length_c   19.16100000
_cell_angle_alpha   90.00000000
_cell_angle_beta   99.98000000
_cell_angle_gamma   90.00000000
_symmetry_Int_Tables_number   1
_chemical_formula_structural   Zn2H10C22S(NO5)2
_chemical_formula_sum   'Zn4 H20 C44 S2 N4 O20'
_cell_volume   3122.06923747
_cell_formula_units_Z   2
loop_
 _symmetry_equiv_pos_site_id
 _symmetry_equiv_pos_as_xyz
  1  'x, y, z'
loop_
 _atom_site_type_symbol
 _atom_site_label
 _atom_site_symmetry_multiplicity
 _atom_site_fract_x
 _atom_site_fract_y
 _atom_site_fract_z
 _atom_site_occupancy
  Zn  Zn0  1  0.03513000  0.72661000  0.87455000  1
  Zn  Zn1  1  0.27871000  0.63247000  0.98929000  1
  Zn  Zn2  1  0.72129000  0.13247000  0.01071000  1
  Zn  Zn3  1  0.96487000  0.22661000  0.12545000  1
  H  H4  1  0.02310000  0.42050000  0.98720000  1
  H  H5  1  0.08560000  0.00640000  0.21230000  1
  H  H6  1  0.21260000  0.78210000  0.15920000  1
  H  H7  1  0.29290000  0.78760000  0.72570000  1
  H  H8  1  0.31510000  0.86650000  0.27040000  1
  H  H9  1  0.31700000  0.28330000  0.28550000  1
  H  H10  1  0.43960000  0.21980000  0.10370000  1
  H  H11  1  0.45250000  0.85510000  0.37270000  1
  H  H12  1  0.46990000  0.31270000  0.38360000  1
  H  H13  1  0.47120000  0.32390000  0.50140000  1
  H  H14  1  0.52880000  0.82390000  0.49860000  1
  H  H15  1  0.53010000  0.81270000  0.61640000  1
  H  H16  1  0.54750000  0.35510000  0.62730000  1
  H  H17  1  0.56040000  0.71980000  0.89630000  1
  H  H18  1  0.68300000  0.78330000  0.71450000  1
  H  H19  1  0.68490000  0.36650000  0.72960000  1
  H  H20  1  0.70710000  0.28760000  0.27430000  1
  H  H21  1  0.78740000  0.28210000  0.84080000  1
  H  H22  1  0.91440000  0.50640000  0.78770000  1
  H  H23  1  0.97690000  0.92050000  0.01280000  1
  C  C24  1  0.01720000  0.97140000  0.10870000  1
  C  C25  1  0.02280000  0.91320000  0.05870000  1
  C  C26  1  0.05930000  0.54940000  0.91020000  1
  C  C27  1  0.08710000  0.96440000  0.17930000  1
  C  C28  1  0.10060000  0.83960000  0.07720000  1
  C  C29  1  0.11320000  0.77810000  0.02210000  1
  C  C30  1  0.15790000  0.89160000  0.19670000  1
  C  C31  1  0.16440000  0.83010000  0.14610000  1
  C  C32  1  0.17910000  0.89250000  0.32560000  1
  C  C33  1  0.21780000  0.23280000  0.15510000  1
  C  C34  1  0.26970000  0.87730000  0.39340000  1
  C  C35  1  0.30030000  0.73940000  0.85740000  1
  C  C36  1  0.34760000  0.83540000  0.59750000  1
  C  C37  1  0.34830000  0.84760000  0.51910000  1
  C  C38  1  0.35720000  0.24950000  0.18920000  1
  C  C39  1  0.38050000  0.77820000  0.74680000  1
  C  C40  1  0.38550000  0.27540000  0.26000000  1
  C  C41  1  0.39840000  0.85720000  0.40690000  1
  C  C42  1  0.41000000  0.75350000  0.81670000  1
  C  C43  1  0.44240000  0.83960000  0.48000000  1
  C  C44  1  0.45840000  0.23780000  0.15050000  1
  C  C45  1  0.48310000  0.78930000  0.70760000  1
  C  C46  1  0.51690000  0.28930000  0.29240000  1
  C  C47  1  0.54160000  0.73780000  0.84950000  1
  C  C48  1  0.55760000  0.33960000  0.52000000  1
  C  C49  1  0.59000000  0.25350000  0.18330000  1
  C  C50  1  0.60160000  0.35720000  0.59310000  1
  C  C51  1  0.61450000  0.77540000  0.74000000  1
  C  C52  1  0.61950000  0.27820000  0.25320000  1
  C  C53  1  0.64280000  0.74950000  0.81080000  1
  C  C54  1  0.65170000  0.34760000  0.48090000  1
  C  C55  1  0.65240000  0.33540000  0.40250000  1
  C  C56  1  0.69970000  0.23940000  0.14260000  1
  C  C57  1  0.73030000  0.37730000  0.60660000  1
  C  C58  1  0.78220000  0.73280000  0.84490000  1
  C  C59  1  0.82090000  0.39250000  0.67440000  1
  C  C60  1  0.83560000  0.33010000  0.85390000  1
  C  C61  1  0.84210000  0.39160000  0.80330000  1
  C  C62  1  0.88680000  0.27810000  0.97790000  1
  C  C63  1  0.89940000  0.33960000  0.92280000  1
  C  C64  1  0.91290000  0.46440000  0.82070000  1
  C  C65  1  0.94070000  0.04940000  0.08980000  1
  C  C66  1  0.97720000  0.41320000  0.94130000  1
  C  C67  1  0.98280000  0.47140000  0.89130000  1
  S  S68  1  0.20283000  0.87626000  0.46788000  1
  S  S69  1  0.79717000  0.37626000  0.53212000  1
  N  N70  1  0.23320000  0.88080000  0.26600000  1
  N  N71  1  0.46190000  0.81280000  0.63700000  1
  N  N72  1  0.53810000  0.31280000  0.36300000  1
  N  N73  1  0.76680000  0.38080000  0.73400000  1
  O  O74  1  0.05190000  0.60590000  0.86417000  1
  O  O75  1  0.05860000  0.79450000  0.95914000  1
  O  O76  1  0.06600000  0.91410000  0.32460000  1
  O  O77  1  0.12670000  0.26010000  0.18981000  1
  O  O78  1  0.12850000  0.55370000  0.97187000  1
  O  O79  1  0.17800000  0.71480000  0.04135000  1
  O  O80  1  0.18320000  0.75640000  0.82592000  1
  O  O81  1  0.19190000  0.19770000  0.09698000  1
  O  O82  1  0.24440000  0.84400000  0.61730000  1
  O  O83  1  0.33010000  0.71270000  0.92037000  1
  O  O84  1  0.66990000  0.21270000  0.07963000  1
  O  O85  1  0.75560000  0.34400000  0.38270000  1
  O  O86  1  0.80810000  0.69770000  0.90302000  1
  O  O87  1  0.81680000  0.25640000  0.17408000  1
  O  O88  1  0.82200000  0.21480000  0.95865000  1
  O  O89  1  0.87150000  0.05370000  0.02813000  1
  O  O90  1  0.87330000  0.76010000  0.81019000  1
  O  O91  1  0.93400000  0.41410000  0.67540000  1
  O  O92  1  0.94140000  0.29450000  0.04086000  1
  O  O93  1  0.94810000  0.10590000  0.13583000  1
