# generated using pymatgen
data_CdFeH24C30S2(N2O3)2
_symmetry_space_group_name_H-M   'P 1'
_cell_length_a   11.70000000
_cell_length_b   11.83100000
_cell_length_c   13.49000000
_cell_angle_alpha   90.00000000
_cell_angle_beta   90.00000000
_cell_angle_gamma   90.00000000
_symmetry_Int_Tables_number   1
_chemical_formula_structural   CdFeH24C30S2(N2O3)2
_chemical_formula_sum   'Cd2 Fe2 H48 C60 S4 N8 O12'
_cell_volume   1867.32222300
_cell_formula_units_Z   2
loop_
 _symmetry_equiv_pos_site_id
 _symmetry_equiv_pos_as_xyz
  1  'x, y, z'
loop_
 _atom_site_type_symbol
 _atom_site_label
 _atom_site_symmetry_multiplicity
 _atom_site_fract_x
 _atom_site_fract_y
 _atom_site_fract_z
 _atom_site_occupancy
  Cd  Cd0  1  0.28255000  0.00000000  0.00000000  1
  Cd  Cd1  1  0.71745000  0.50000000  0.50000000  1
  Fe  Fe2  1  0.21276000  0.00000000  0.50000000  1
  Fe  Fe3  1  0.78724000  0.50000000  0.00000000  1
  H  H4  1  0.05640000  0.04370000  0.64490000  1
  H  H5  1  0.05640000  0.95630000  0.35510000  1
  H  H6  1  0.06470000  0.17720000  0.49230000  1
  H  H7  1  0.06470000  0.82280000  0.50770000  1
  H  H8  1  0.06750000  0.07230000  0.87030000  1
  H  H9  1  0.06750000  0.92770000  0.12970000  1
  H  H10  1  0.13080000  0.42080000  0.36830000  1
  H  H11  1  0.13080000  0.57920000  0.63170000  1
  H  H12  1  0.14170000  0.41570000  0.07440000  1
  H  H13  1  0.14170000  0.58430000  0.92560000  1
  H  H14  1  0.14450000  0.22580000  0.07900000  1
  H  H15  1  0.14450000  0.77420000  0.92100000  1
  H  H16  1  0.27590000  0.22080000  0.45950000  1
  H  H17  1  0.27590000  0.77920000  0.54050000  1
  H  H18  1  0.30160000  0.41210000  0.62550000  1
  H  H19  1  0.30160000  0.58790000  0.37450000  1
  H  H20  1  0.39850000  0.10490000  0.58030000  1
  H  H21  1  0.39850000  0.89510000  0.41970000  1
  H  H22  1  0.42720000  0.21630000  0.92790000  1
  H  H23  1  0.42720000  0.78370000  0.07210000  1
  H  H24  1  0.43640000  0.41260000  0.92720000  1
  H  H25  1  0.43640000  0.58740000  0.07280000  1
  H  H26  1  0.49920000  0.09040000  0.12260000  1
  H  H27  1  0.49920000  0.90960000  0.87740000  1
  H  H28  1  0.50080000  0.40960000  0.62260000  1
  H  H29  1  0.50080000  0.59040000  0.37740000  1
  H  H30  1  0.56360000  0.08740000  0.42720000  1
  H  H31  1  0.56360000  0.91260000  0.57280000  1
  H  H32  1  0.57280000  0.28370000  0.42790000  1
  H  H33  1  0.57280000  0.71630000  0.57210000  1
  H  H34  1  0.60150000  0.39510000  0.08030000  1
  H  H35  1  0.60150000  0.60490000  0.91970000  1
  H  H36  1  0.69840000  0.08790000  0.12550000  1
  H  H37  1  0.69840000  0.91210000  0.87450000  1
  H  H38  1  0.72410000  0.27920000  0.95950000  1
  H  H39  1  0.72410000  0.72080000  0.04050000  1
  H  H40  1  0.85550000  0.27420000  0.57900000  1
  H  H41  1  0.85550000  0.72580000  0.42100000  1
  H  H42  1  0.85830000  0.08430000  0.57440000  1
  H  H43  1  0.85830000  0.91570000  0.42560000  1
  H  H44  1  0.86920000  0.07920000  0.86830000  1
  H  H45  1  0.86920000  0.92080000  0.13170000  1
  H  H46  1  0.93250000  0.42770000  0.37030000  1
  H  H47  1  0.93250000  0.57230000  0.62970000  1
  H  H48  1  0.93530000  0.32280000  0.99230000  1
  H  H49  1  0.93530000  0.67720000  0.00770000  1
  H  H50  1  0.94360000  0.45630000  0.14490000  1
  H  H51  1  0.94360000  0.54370000  0.85510000  1
  C  C52  1  0.02670000  0.04330000  0.92380000  1
  C  C53  1  0.02670000  0.95670000  0.07620000  1
  C  C54  1  0.09280000  0.45360000  0.42160000  1
  C  C55  1  0.09280000  0.54640000  0.57840000  1
  C  C56  1  0.12560000  0.07310000  0.61310000  1
  C  C57  1  0.12560000  0.92690000  0.38690000  1
  C  C58  1  0.13010000  0.14650000  0.52880000  1
  C  C59  1  0.13010000  0.85350000  0.47120000  1
  C  C60  1  0.15440000  0.50000000  0.50000000  1
  C  C61  1  0.20160000  0.37690000  0.04450000  1
  C  C62  1  0.20160000  0.62310000  0.95550000  1
  C  C63  1  0.20330000  0.26330000  0.04630000  1
  C  C64  1  0.20330000  0.73670000  0.95370000  1
  C  C65  1  0.23930000  0.04930000  0.64070000  1
  C  C66  1  0.23930000  0.95070000  0.35930000  1
  C  C67  1  0.24660000  0.17250000  0.51280000  1
  C  C68  1  0.24660000  0.82750000  0.48720000  1
  C  C69  1  0.28220000  0.50000000  0.50000000  1
  C  C70  1  0.28820000  0.43620000  0.99860000  1
  C  C71  1  0.28820000  0.56380000  0.00140000  1
  C  C72  1  0.31490000  0.10650000  0.57750000  1
  C  C73  1  0.31490000  0.89350000  0.42250000  1
  C  C74  1  0.34090000  0.44750000  0.57420000  1
  C  C75  1  0.34090000  0.55250000  0.42580000  1
  C  C76  1  0.36940000  0.25710000  0.95890000  1
  C  C77  1  0.36940000  0.74290000  0.04110000  1
  C  C78  1  0.37480000  0.37590000  0.95670000  1
  C  C79  1  0.37480000  0.62410000  0.04330000  1
  C  C80  1  0.46090000  0.44700000  0.57280000  1
  C  C81  1  0.46090000  0.55300000  0.42720000  1
  C  C82  1  0.53910000  0.05300000  0.07280000  1
  C  C83  1  0.53910000  0.94700000  0.92720000  1
  C  C84  1  0.62520000  0.12410000  0.45670000  1
  C  C85  1  0.62520000  0.87590000  0.54330000  1
  C  C86  1  0.63060000  0.24290000  0.45890000  1
  C  C87  1  0.63060000  0.75710000  0.54110000  1
  C  C88  1  0.65910000  0.05250000  0.07420000  1
  C  C89  1  0.65910000  0.94750000  0.92580000  1
  C  C90  1  0.68510000  0.39350000  0.07750000  1
  C  C91  1  0.68510000  0.60650000  0.92250000  1
  C  C92  1  0.71180000  0.06380000  0.49860000  1
  C  C93  1  0.71180000  0.93620000  0.50140000  1
  C  C94  1  0.71780000  0.00000000  0.00000000  1
  C  C95  1  0.75340000  0.32750000  0.01280000  1
  C  C96  1  0.75340000  0.67250000  0.98720000  1
  C  C97  1  0.76070000  0.45070000  0.14070000  1
  C  C98  1  0.76070000  0.54930000  0.85930000  1
  C  C99  1  0.79670000  0.23670000  0.54630000  1
  C  C100  1  0.79670000  0.76330000  0.45370000  1
  C  C101  1  0.79840000  0.12310000  0.54450000  1
  C  C102  1  0.79840000  0.87690000  0.45550000  1
  C  C103  1  0.84560000  0.00000000  0.00000000  1
  C  C104  1  0.86990000  0.35350000  0.02880000  1
  C  C105  1  0.86990000  0.64650000  0.97120000  1
  C  C106  1  0.87440000  0.42690000  0.11310000  1
  C  C107  1  0.87440000  0.57310000  0.88690000  1
  C  C108  1  0.90720000  0.04640000  0.92160000  1
  C  C109  1  0.90720000  0.95360000  0.07840000  1
  C  C110  1  0.97330000  0.45670000  0.42380000  1
  C  C111  1  0.97330000  0.54330000  0.57620000  1
  S  S112  1  0.27840000  0.03700000  0.26011000  1
  S  S113  1  0.27840000  0.96300000  0.73989000  1
  S  S114  1  0.72160000  0.46300000  0.76011000  1
  S  S115  1  0.72160000  0.53700000  0.23989000  1
  N  N116  1  0.08370000  0.00000000  0.00000000  1
  N  N117  1  0.28610000  0.20070000  0.00300000  1
  N  N118  1  0.28610000  0.79930000  0.99700000  1
  N  N119  1  0.48100000  0.00000000  0.00000000  1
  N  N120  1  0.51900000  0.50000000  0.50000000  1
  N  N121  1  0.71390000  0.29930000  0.50300000  1
  N  N122  1  0.71390000  0.70070000  0.49700000  1
  N  N123  1  0.91630000  0.50000000  0.50000000  1
  O  O124  1  0.18810000  0.12190000  0.25040000  1
  O  O125  1  0.18810000  0.87810000  0.74960000  1
  O  O126  1  0.28370000  0.03350000  0.82730000  1
  O  O127  1  0.28370000  0.96650000  0.17270000  1
  O  O128  1  0.38950000  0.08440000  0.28450000  1
  O  O129  1  0.38950000  0.91560000  0.71550000  1
  O  O130  1  0.61050000  0.41560000  0.78450000  1
  O  O131  1  0.61050000  0.58440000  0.21550000  1
  O  O132  1  0.71630000  0.46650000  0.32730000  1
  O  O133  1  0.71630000  0.53350000  0.67270000  1
  O  O134  1  0.81190000  0.37810000  0.75040000  1
  O  O135  1  0.81190000  0.62190000  0.24960000  1
