# generated using pymatgen
data_EuH8C16ClO8
_symmetry_space_group_name_H-M   'P 1'
_cell_length_a   13.05330000
_cell_length_b   13.14710000
_cell_length_c   14.05370000
_cell_angle_alpha   90.00000000
_cell_angle_beta   104.08800000
_cell_angle_gamma   90.00000000
_symmetry_Int_Tables_number   1
_chemical_formula_structural   EuH8C16ClO8
_chemical_formula_sum   'Eu4 H32 C64 Cl4 O32'
_cell_volume   2339.25857233
_cell_formula_units_Z   4
loop_
 _symmetry_equiv_pos_site_id
 _symmetry_equiv_pos_as_xyz
  1  'x, y, z'
loop_
 _atom_site_type_symbol
 _atom_site_label
 _atom_site_symmetry_multiplicity
 _atom_site_fract_x
 _atom_site_fract_y
 _atom_site_fract_z
 _atom_site_occupancy
  Eu  Eu0  1  0.09068000  0.44716000  0.41193000  1
  Eu  Eu1  1  0.40932000  0.94716000  0.08807000  1
  Eu  Eu2  1  0.59068000  0.05284000  0.91193000  1
  Eu  Eu3  1  0.90932000  0.55284000  0.58807000  1
  H  H4  1  0.07650000  0.62860000  0.93020000  1
  H  H5  1  0.09280000  0.87370000  0.59880000  1
  H  H6  1  0.10530000  0.36610000  0.83970000  1
  H  H7  1  0.13340000  0.59440000  0.09710000  1
  H  H8  1  0.13380000  0.65250000  0.71710000  1
  H  H9  1  0.18160000  0.01430000  0.56330000  1
  H  H10  1  0.18980000  0.25510000  0.95930000  1
  H  H11  1  0.22620000  0.75710000  0.84140000  1
  H  H12  1  0.27380000  0.25710000  0.65860000  1
  H  H13  1  0.31020000  0.75510000  0.54070000  1
  H  H14  1  0.31840000  0.51430000  0.93670000  1
  H  H15  1  0.36620000  0.15250000  0.78290000  1
  H  H16  1  0.36660000  0.09440000  0.40290000  1
  H  H17  1  0.39470000  0.86610000  0.66030000  1
  H  H18  1  0.40720000  0.37370000  0.90120000  1
  H  H19  1  0.42350000  0.12860000  0.56980000  1
  H  H20  1  0.57650000  0.87140000  0.43020000  1
  H  H21  1  0.59280000  0.62630000  0.09880000  1
  H  H22  1  0.60530000  0.13390000  0.33970000  1
  H  H23  1  0.63340000  0.90560000  0.59710000  1
  H  H24  1  0.63380000  0.84750000  0.21710000  1
  H  H25  1  0.68160000  0.48570000  0.06330000  1
  H  H26  1  0.68980000  0.24490000  0.45930000  1
  H  H27  1  0.72620000  0.74290000  0.34140000  1
  H  H28  1  0.77380000  0.24290000  0.15860000  1
  H  H29  1  0.81020000  0.74490000  0.04070000  1
  H  H30  1  0.81840000  0.98570000  0.43670000  1
  H  H31  1  0.86620000  0.34750000  0.28290000  1
  H  H32  1  0.86660000  0.40560000  0.90290000  1
  H  H33  1  0.89470000  0.63390000  0.16030000  1
  H  H34  1  0.90720000  0.12630000  0.40120000  1
  H  H35  1  0.92350000  0.37140000  0.06980000  1
  C  C36  1  0.03510000  0.47970000  0.09960000  1
  C  C37  1  0.04510000  0.57660000  0.95790000  1
  C  C38  1  0.05220000  0.08410000  0.47670000  1
  C  C39  1  0.05580000  0.92490000  0.55930000  1
  C  C40  1  0.07040000  0.45830000  0.20810000  1
  C  C41  1  0.07950000  0.55570000  0.05830000  1
  C  C42  1  0.10680000  0.17860000  0.45180000  1
  C  C43  1  0.10910000  0.00820000  0.53790000  1
  C  C44  1  0.11570000  0.38490000  0.65250000  1
  C  C45  1  0.15570000  0.32150000  0.82720000  1
  C  C46  1  0.15980000  0.62030000  0.53940000  1
  C  C47  1  0.17860000  0.32050000  0.73570000  1
  C  C48  1  0.18770000  0.69390000  0.70630000  1
  C  C49  1  0.20780000  0.25640000  0.89920000  1
  C  C50  1  0.21310000  0.69240000  0.61620000  1
  C  C51  1  0.24250000  0.75720000  0.78060000  1
  C  C52  1  0.25750000  0.25720000  0.71940000  1
  C  C53  1  0.28690000  0.19240000  0.88380000  1
  C  C54  1  0.29220000  0.75640000  0.60080000  1
  C  C55  1  0.31230000  0.19390000  0.79370000  1
  C  C56  1  0.32140000  0.82050000  0.76430000  1
  C  C57  1  0.34020000  0.12030000  0.96060000  1
  C  C58  1  0.34430000  0.82150000  0.67280000  1
  C  C59  1  0.38430000  0.88490000  0.84750000  1
  C  C60  1  0.39090000  0.50820000  0.96210000  1
  C  C61  1  0.39320000  0.67860000  0.04820000  1
  C  C62  1  0.42050000  0.05570000  0.44170000  1
  C  C63  1  0.42960000  0.95830000  0.29190000  1
  C  C64  1  0.44420000  0.42490000  0.94070000  1
  C  C65  1  0.44780000  0.58410000  0.02330000  1
  C  C66  1  0.45490000  0.07660000  0.54210000  1
  C  C67  1  0.46490000  0.97970000  0.40040000  1
  C  C68  1  0.53510000  0.02030000  0.59960000  1
  C  C69  1  0.54510000  0.92340000  0.45790000  1
  C  C70  1  0.55220000  0.41590000  0.97670000  1
  C  C71  1  0.55580000  0.57510000  0.05930000  1
  C  C72  1  0.57040000  0.04170000  0.70810000  1
  C  C73  1  0.57950000  0.94430000  0.55830000  1
  C  C74  1  0.60680000  0.32140000  0.95180000  1
  C  C75  1  0.60910000  0.49180000  0.03790000  1
  C  C76  1  0.61570000  0.11510000  0.15250000  1
  C  C77  1  0.65570000  0.17850000  0.32720000  1
  C  C78  1  0.65980000  0.87970000  0.03940000  1
  C  C79  1  0.67860000  0.17950000  0.23570000  1
  C  C80  1  0.68770000  0.80610000  0.20630000  1
  C  C81  1  0.70780000  0.24360000  0.39920000  1
  C  C82  1  0.71310000  0.80760000  0.11620000  1
  C  C83  1  0.74250000  0.74280000  0.28060000  1
  C  C84  1  0.75750000  0.24280000  0.21940000  1
  C  C85  1  0.78690000  0.30760000  0.38380000  1
  C  C86  1  0.79220000  0.74360000  0.10080000  1
  C  C87  1  0.81230000  0.30610000  0.29370000  1
  C  C88  1  0.82140000  0.67950000  0.26430000  1
  C  C89  1  0.84020000  0.37970000  0.46060000  1
  C  C90  1  0.84430000  0.67850000  0.17280000  1
  C  C91  1  0.88430000  0.61510000  0.34750000  1
  C  C92  1  0.89090000  0.99180000  0.46210000  1
  C  C93  1  0.89320000  0.82140000  0.54820000  1
  C  C94  1  0.92050000  0.44430000  0.94170000  1
  C  C95  1  0.92960000  0.54170000  0.79190000  1
  C  C96  1  0.94420000  0.07510000  0.44070000  1
  C  C97  1  0.94780000  0.91590000  0.52330000  1
  C  C98  1  0.95490000  0.42340000  0.04210000  1
  C  C99  1  0.96490000  0.52030000  0.90040000  1
  Cl  Cl100  1  0.19809000  0.86201000  0.07719000  1
  Cl  Cl101  1  0.30191000  0.36201000  0.42281000  1
  Cl  Cl102  1  0.69809000  0.63799000  0.57719000  1
  Cl  Cl103  1  0.80191000  0.13799000  0.92281000  1
  O  O104  1  0.02720000  0.38870000  0.24440000  1
  O  O105  1  0.03680000  0.43010000  0.66680000  1
  O  O106  1  0.05730000  0.25250000  0.41370000  1
  O  O107  1  0.06880000  0.58600000  0.54180000  1
  O  O108  1  0.14150000  0.51340000  0.26070000  1
  O  O109  1  0.15010000  0.38760000  0.57550000  1
  O  O110  1  0.20330000  0.59280000  0.47280000  1
  O  O111  1  0.20980000  0.17070000  0.47560000  1
  O  O112  1  0.29020000  0.67070000  0.02440000  1
  O  O113  1  0.29670000  0.09280000  0.02720000  1
  O  O114  1  0.34990000  0.88760000  0.92450000  1
  O  O115  1  0.35850000  0.01340000  0.23930000  1
  O  O116  1  0.43120000  0.08600000  0.95820000  1
  O  O117  1  0.44270000  0.75250000  0.08630000  1
  O  O118  1  0.46320000  0.93010000  0.83320000  1
  O  O119  1  0.47280000  0.88870000  0.25560000  1
  O  O120  1  0.52720000  0.11130000  0.74440000  1
  O  O121  1  0.53680000  0.06990000  0.16680000  1
  O  O122  1  0.55730000  0.24750000  0.91370000  1
  O  O123  1  0.56880000  0.91400000  0.04180000  1
  O  O124  1  0.64150000  0.98660000  0.76070000  1
  O  O125  1  0.65010000  0.11240000  0.07550000  1
  O  O126  1  0.70330000  0.90720000  0.97280000  1
  O  O127  1  0.70980000  0.32930000  0.97560000  1
  O  O128  1  0.79020000  0.82930000  0.52440000  1
  O  O129  1  0.79670000  0.40720000  0.52720000  1
  O  O130  1  0.84990000  0.61240000  0.42450000  1
  O  O131  1  0.85850000  0.48660000  0.73930000  1
  O  O132  1  0.93120000  0.41400000  0.45820000  1
  O  O133  1  0.94270000  0.74750000  0.58630000  1
  O  O134  1  0.96320000  0.56990000  0.33320000  1
  O  O135  1  0.97280000  0.61130000  0.75560000  1
