# generated using pymatgen
data_Ag2P4H56(C25O)3
_symmetry_space_group_name_H-M   'P 1'
_cell_length_a   23.05035001
_cell_length_b   23.05035001
_cell_length_c   23.05035001
_cell_angle_alpha   105.22181521
_cell_angle_beta   105.22181521
_cell_angle_gamma   105.22181521
_symmetry_Int_Tables_number   1
_chemical_formula_structural   Ag2P4H56(C25O)3
_chemical_formula_sum   'Ag12 P24 H336 C450 O18'
_cell_volume   10655.61415494
_cell_formula_units_Z   6
loop_
 _symmetry_equiv_pos_site_id
 _symmetry_equiv_pos_as_xyz
  1  'x, y, z'
loop_
 _atom_site_type_symbol
 _atom_site_label
 _atom_site_symmetry_multiplicity
 _atom_site_fract_x
 _atom_site_fract_y
 _atom_site_fract_z
 _atom_site_occupancy
  Ag  Ag0  1  0.76175000  0.81293000  0.48353000  1
  Ag  Ag1  1  0.26175000  0.98353000  0.31293000  1
  Ag  Ag2  1  0.31293000  0.26175000  0.98353000  1
  Ag  Ag3  1  0.81293000  0.48353000  0.76175000  1
  Ag  Ag4  1  0.48353000  0.76175000  0.81293000  1
  Ag  Ag5  1  0.98353000  0.31293000  0.26175000  1
  Ag  Ag6  1  0.01647000  0.68707000  0.73825000  1
  Ag  Ag7  1  0.51647000  0.23825000  0.18707000  1
  Ag  Ag8  1  0.68707000  0.73825000  0.01647000  1
  Ag  Ag9  1  0.18707000  0.51647000  0.23825000  1
  Ag  Ag10  1  0.23825000  0.18707000  0.51647000  1
  Ag  Ag11  1  0.73825000  0.01647000  0.68707000  1
  C  C12  1  0.75000000  0.89350000  0.60650000  1
  C  C13  1  0.25000000  0.10650000  0.39350000  1
  C  C14  1  0.63200000  0.89990000  0.35400000  1
  C  C15  1  0.13200000  0.85400000  0.39990000  1
  C  C16  1  0.92150000  0.20420000  0.62490000  1
  C  C17  1  0.42150000  0.12490000  0.70420000  1
  C  C18  1  0.09450000  0.56150000  0.61110000  1
  C  C19  1  0.59450000  0.11110000  0.06150000  1
  C  C20  1  0.41410000  0.80690000  0.00440000  1
  C  C21  1  0.91410000  0.50440000  0.30690000  1
  C  C22  1  0.91640000  0.26390000  0.55140000  1
  C  C23  1  0.41640000  0.05140000  0.76390000  1
  C  C24  1  0.54980000  0.81000000  0.26840000  1
  C  C25  1  0.04980000  0.76840000  0.31000000  1
  C  C26  1  0.00790000  0.09480000  0.89570000  1
  C  C27  1  0.50790000  0.39570000  0.59480000  1
  C  C28  1  0.96060000  0.04120000  0.85260000  1
  C  C29  1  0.46060000  0.35260000  0.54120000  1
  C  C30  1  0.49480000  0.60200000  0.34930000  1
  C  C31  1  0.99480000  0.84930000  0.10200000  1
  C  C32  1  0.59350000  0.69060000  0.45390000  1
  C  C33  1  0.09350000  0.95390000  0.19060000  1
  C  C34  1  0.26390000  0.55140000  0.91640000  1
  C  C35  1  0.76390000  0.41640000  0.05140000  1
  C  C36  1  0.65470000  0.85960000  0.38120000  1
  C  C37  1  0.15470000  0.88120000  0.35960000  1
  C  C38  1  0.94860000  0.23610000  0.58360000  1
  C  C39  1  0.44860000  0.08360000  0.73610000  1
  C  C40  1  0.57440000  0.77110000  0.29860000  1
  C  C41  1  0.07440000  0.79860000  0.27110000  1
  C  C42  1  0.94380000  0.29580000  0.51010000  1
  C  C43  1  0.44380000  0.01010000  0.79580000  1
  C  C44  1  0.73030000  0.16710000  0.20230000  1
  C  C45  1  0.23030000  0.70230000  0.66710000  1
  C  C46  1  0.99020000  0.35170000  0.53080000  1
  C  C47  1  0.49020000  0.03080000  0.85170000  1
  C  C48  1  0.12790000  0.49300000  0.66240000  1
  C  C49  1  0.62790000  0.16240000  0.99300000  1
  C  C50  1  0.62730000  0.79500000  0.35260000  1
  C  C51  1  0.12730000  0.85260000  0.29500000  1
  C  C52  1  0.44970000  0.85770000  0.93420000  1
  C  C53  1  0.94970000  0.43420000  0.35770000  1
  C  C54  1  0.59470000  0.68740000  0.39440000  1
  C  C55  1  0.09470000  0.89440000  0.18740000  1
  C  C56  1  0.54630000  0.64230000  0.34120000  1
  C  C57  1  0.04630000  0.84120000  0.14230000  1
  C  C58  1  0.13190000  0.52580000  0.62080000  1
  C  C59  1  0.63190000  0.12080000  0.02580000  1
  C  C60  1  0.91470000  0.26390000  0.44330000  1
  C  C61  1  0.45450000  0.81720000  0.96960000  1
  C  C62  1  0.95450000  0.46960000  0.31720000  1
  C  C63  1  0.41470000  0.94330000  0.76390000  1
  C  C64  1  0.62490000  0.92150000  0.20420000  1
  C  C65  1  0.12490000  0.70420000  0.42150000  1
  C  C66  1  0.29580000  0.51010000  0.94380000  1
  C  C67  1  0.79580000  0.44380000  0.01010000  1
  C  C68  1  0.29580000  0.57850000  0.87510000  1
  C  C69  1  0.79580000  0.37510000  0.07850000  1
  C  C70  1  0.74500000  0.12060000  0.22270000  1
  C  C71  1  0.24500000  0.72270000  0.62060000  1
  C  C72  1  0.01070000  0.38150000  0.48920000  1
  C  C73  1  0.51070000  0.98920000  0.88150000  1
  C  C74  1  0.27450000  0.68280000  0.70630000  1
  C  C75  1  0.77450000  0.20630000  0.18280000  1
  C  C76  1  0.26390000  0.44330000  0.91470000  1
  C  C77  1  0.76390000  0.41470000  0.94330000  1
  C  C78  1  0.93150000  0.29110000  0.40080000  1
  C  C79  1  0.43150000  0.90080000  0.79110000  1
  C  C80  1  0.35400000  0.63200000  0.89990000  1
  C  C81  1  0.85400000  0.39990000  0.13200000  1
  C  C82  1  0.26840000  0.54980000  0.81000000  1
  C  C83  1  0.76840000  0.31000000  0.04980000  1
  C  C84  1  0.35170000  0.53080000  0.99020000  1
  C  C85  1  0.85170000  0.49020000  0.03080000  1
  C  C86  1  0.98080000  0.35220000  0.42450000  1
  C  C87  1  0.48080000  0.92450000  0.85220000  1
  C  C88  1  0.60010000  0.86800000  0.14600000  1
  C  C89  1  0.10010000  0.64600000  0.36800000  1
  C  C90  1  0.80690000  0.00440000  0.41410000  1
  C  C91  1  0.30690000  0.91410000  0.50440000  1
  C  C92  1  0.49300000  0.66240000  0.12790000  1
  C  C93  1  0.99300000  0.62790000  0.16240000  1
  C  C94  1  0.69000000  0.95020000  0.23160000  1
  C  C95  1  0.19000000  0.73160000  0.45020000  1
  C  C96  1  0.10620000  0.21550000  0.79750000  1
  C  C97  1  0.60620000  0.29750000  0.71550000  1
  C  C98  1  0.81720000  0.96960000  0.45450000  1
  C  C99  1  0.31720000  0.95450000  0.46960000  1
  C  C100  1  0.49560000  0.69310000  0.08590000  1
  C  C101  1  0.99560000  0.58590000  0.19310000  1
  C  C102  1  0.98990000  0.20420000  0.55620000  1
  C  C103  1  0.48990000  0.05620000  0.70420000  1
  C  C104  1  0.98440000  0.03320000  0.70550000  1
  C  C105  1  0.48440000  0.20550000  0.53320000  1
  C  C106  1  0.59160000  0.94170000  0.01100000  1
  C  C107  1  0.09160000  0.51100000  0.44170000  1
  C  C108  1  0.95410000  0.97030000  0.69430000  1
  C  C109  1  0.45410000  0.19430000  0.47030000  1
  C  C110  1  0.97820000  0.05540000  0.65530000  1
  C  C111  1  0.47820000  0.15530000  0.55540000  1
  C  C112  1  0.38120000  0.65470000  0.85960000  1
  C  C113  1  0.88120000  0.35960000  0.15470000  1
  C  C114  1  0.29110000  0.40080000  0.93150000  1
  C  C115  1  0.79110000  0.43150000  0.90080000  1
  C  C116  1  0.29860000  0.57440000  0.77110000  1
  C  C117  1  0.79860000  0.27110000  0.07440000  1
  C  C118  1  0.14640000  0.19800000  0.84110000  1
  C  C119  1  0.64640000  0.34110000  0.69800000  1
  C  C120  1  0.38150000  0.48920000  0.01070000  1
  C  C121  1  0.88150000  0.51070000  0.98920000  1
  C  C122  1  0.54120000  0.46060000  0.35260000  1
  C  C123  1  0.04120000  0.85260000  0.96060000  1
  C  C124  1  0.79750000  0.10620000  0.21550000  1
  C  C125  1  0.29750000  0.71550000  0.60620000  1
  C  C126  1  0.12060000  0.22270000  0.74500000  1
  C  C127  1  0.62060000  0.24500000  0.72270000  1
  C  C128  1  0.65530000  0.97820000  0.05540000  1
  C  C129  1  0.15530000  0.55540000  0.47820000  1
  C  C130  1  0.91650000  0.92400000  0.63150000  1
  C  C131  1  0.41650000  0.13150000  0.42400000  1
  C  C132  1  0.96920000  0.14830000  0.50980000  1
  C  C133  1  0.46920000  0.00980000  0.64830000  1
  C  C134  1  0.32920000  0.68180000  0.69610000  1
  C  C135  1  0.82920000  0.19610000  0.18180000  1
  C  C136  1  0.94170000  0.01100000  0.59160000  1
  C  C137  1  0.44170000  0.09160000  0.51100000  1
  C  C138  1  0.35260000  0.62730000  0.79500000  1
  C  C139  1  0.85260000  0.29500000  0.12730000  1
  C  C140  1  0.59480000  0.50790000  0.39570000  1
  C  C141  1  0.09480000  0.89570000  0.00790000  1
  C  C142  1  0.05670000  0.23610000  0.58530000  1
  C  C143  1  0.55670000  0.08530000  0.73610000  1
  C  C144  1  0.47030000  0.45410000  0.19430000  1
  C  C145  1  0.97030000  0.69430000  0.95410000  1
  C  C146  1  0.83760000  0.00700000  0.37210000  1
  C  C147  1  0.33760000  0.87210000  0.50700000  1
  C  C148  1  0.64740000  0.45880000  0.53940000  1
  C  C149  1  0.14740000  0.03940000  0.95880000  1
  C  C150  1  0.91200000  0.94700000  0.58000000  1
  C  C151  1  0.41200000  0.08000000  0.44700000  1
  C  C152  1  0.52580000  0.62080000  0.13190000  1
  C  C153  1  0.02580000  0.63190000  0.12080000  1
  C  C154  1  0.35220000  0.42450000  0.98080000  1
  C  C155  1  0.85220000  0.48080000  0.92450000  1
  C  C156  1  0.42400000  0.41650000  0.13150000  1
  C  C157  1  0.92400000  0.63150000  0.91650000  1
  C  C158  1  0.58000000  0.91200000  0.94700000  1
  C  C159  1  0.08000000  0.44700000  0.41200000  1
  C  C160  1  0.60430000  0.40520000  0.49210000  1
  C  C161  1  0.10430000  0.99210000  0.90520000  1
  C  C162  1  0.64040000  0.84530000  0.11880000  1
  C  C163  1  0.14040000  0.61880000  0.34530000  1
  C  C164  1  0.72890000  0.92560000  0.20140000  1
  C  C165  1  0.22890000  0.70140000  0.42560000  1
  C  C166  1  0.85770000  0.93420000  0.44970000  1
  C  C167  1  0.35770000  0.94970000  0.43420000  1
  C  C168  1  0.53040000  0.68280000  0.04550000  1
  C  C169  1  0.03040000  0.54550000  0.18280000  1
  C  C170  1  0.19060000  0.09350000  0.95390000  1
  C  C171  1  0.69060000  0.45390000  0.59350000  1
  C  C172  1  0.84110000  0.14640000  0.19800000  1
  C  C173  1  0.34110000  0.69800000  0.64640000  1
  C  C174  1  0.68180000  0.69610000  0.32920000  1
  C  C175  1  0.18180000  0.82920000  0.19610000  1
  C  C176  1  0.10200000  0.99480000  0.84930000  1
  C  C177  1  0.60200000  0.34930000  0.49480000  1
  C  C178  1  0.04610000  0.80940000  0.90650000  1
  C  C179  1  0.54610000  0.40650000  0.30940000  1
  C  C180  1  0.53320000  0.48440000  0.20550000  1
  C  C181  1  0.03320000  0.70550000  0.98440000  1
  C  C182  1  0.19610000  0.18180000  0.82920000  1
  C  C183  1  0.69610000  0.32920000  0.68180000  1
  C  C184  1  0.68280000  0.70630000  0.27450000  1
  C  C185  1  0.18280000  0.77450000  0.20630000  1
  C  C186  1  0.18740000  0.09470000  0.89440000  1
  C  C187  1  0.68740000  0.39440000  0.59470000  1
  C  C188  1  0.70500000  0.87270000  0.14740000  1
  C  C189  1  0.20500000  0.64740000  0.37270000  1
  C  C190  1  0.70550000  0.98440000  0.03320000  1
  C  C191  1  0.20550000  0.53320000  0.48440000  1
  C  C192  1  0.14230000  0.04630000  0.84120000  1
  C  C193  1  0.64230000  0.34120000  0.54630000  1
  C  C194  1  0.15070000  0.89800000  0.00520000  1
  C  C195  1  0.65070000  0.50520000  0.39800000  1
  C  C196  1  0.16710000  0.20230000  0.73030000  1
  C  C197  1  0.66710000  0.23030000  0.70230000  1
  C  C198  1  0.44700000  0.41200000  0.08000000  1
  C  C199  1  0.94700000  0.58000000  0.91200000  1
  C  C200  1  0.69800000  0.64640000  0.34110000  1
  C  C201  1  0.19800000  0.84110000  0.14640000  1
  C  C202  1  0.01080000  0.11850000  0.48930000  1
  C  C203  1  0.51080000  0.98930000  0.61850000  1
  C  C204  1  0.87920000  0.97420000  0.36810000  1
  C  C205  1  0.37920000  0.86810000  0.47420000  1
  C  C206  1  0.56150000  0.61110000  0.09450000  1
  C  C207  1  0.06150000  0.59450000  0.11110000  1
  C  C208  1  0.27730000  0.37940000  0.75500000  1
  C  C209  1  0.77730000  0.25500000  0.87940000  1
  C  C210  1  0.09920000  0.20890000  0.56850000  1
  C  C211  1  0.59920000  0.06850000  0.70890000  1
  C  C212  1  0.63150000  0.91650000  0.92400000  1
  C  C213  1  0.13150000  0.42400000  0.41650000  1
  C  C214  1  0.89350000  0.60650000  0.75000000  1
  C  C215  1  0.39350000  0.25000000  0.10650000  1
  C  C216  1  0.88890000  0.93850000  0.40550000  1
  C  C217  1  0.38890000  0.90550000  0.43850000  1
  C  C218  1  0.56580000  0.64230000  0.05030000  1
  C  C219  1  0.06580000  0.55030000  0.14230000  1
  C  C220  1  0.20630000  0.18280000  0.77450000  1
  C  C221  1  0.70630000  0.27450000  0.68280000  1
  C  C222  1  0.69430000  0.95410000  0.97030000  1
  C  C223  1  0.19430000  0.47030000  0.45410000  1
  C  C224  1  0.28450000  0.39380000  0.70250000  1
  C  C225  1  0.78450000  0.20250000  0.89380000  1
  C  C226  1  0.55540000  0.47820000  0.15530000  1
  C  C227  1  0.05540000  0.65530000  0.97820000  1
  C  C228  1  0.07550000  0.14780000  0.51920000  1
  C  C229  1  0.57550000  0.01920000  0.64780000  1
  C  C230  1  0.51100000  0.44170000  0.09160000  1
  C  C231  1  0.01100000  0.59160000  0.94170000  1
  C  C232  1  0.29770000  0.33290000  0.76970000  1
  C  C233  1  0.79770000  0.26970000  0.83290000  1
  C  C234  1  0.10560000  0.81260000  0.90530000  1
  C  C235  1  0.60560000  0.40530000  0.31260000  1
  C  C236  1  0.34120000  0.54630000  0.64230000  1
  C  C237  1  0.84120000  0.14230000  0.04630000  1
  C  C238  1  0.15880000  0.85770000  0.95370000  1
  C  C239  1  0.65880000  0.45370000  0.35770000  1
  C  C240  1  0.39440000  0.59470000  0.68740000  1
  C  C241  1  0.89440000  0.18740000  0.09470000  1
  C  C242  1  0.70230000  0.66710000  0.23030000  1
  C  C243  1  0.20230000  0.73030000  0.16710000  1
  C  C244  1  0.48900000  0.55830000  0.90840000  1
  C  C245  1  0.98900000  0.40840000  0.05830000  1
  C  C246  1  0.92450000  0.85220000  0.48080000  1
  C  C247  1  0.42450000  0.98080000  0.35220000  1
  C  C248  1  0.44460000  0.52180000  0.84470000  1
  C  C249  1  0.94460000  0.34470000  0.02180000  1
  C  C250  1  0.71550000  0.60620000  0.29750000  1
  C  C251  1  0.21550000  0.79750000  0.10620000  1
  C  C252  1  0.80570000  0.52970000  0.54590000  1
  C  C253  1  0.30570000  0.04590000  0.02970000  1
  C  C254  1  0.79370000  0.81720000  0.22550000  1
  C  C255  1  0.29370000  0.72550000  0.31720000  1
  C  C256  1  0.43420000  0.35770000  0.94970000  1
  C  C257  1  0.93420000  0.44970000  0.85770000  1
  C  C258  1  0.11110000  0.06150000  0.59450000  1
  C  C259  1  0.61110000  0.09450000  0.56150000  1
  C  C260  1  0.60650000  0.75000000  0.89350000  1
  C  C261  1  0.10650000  0.39350000  0.25000000  1
  C  C262  1  0.86850000  0.57600000  0.58350000  1
  C  C263  1  0.36850000  0.08350000  0.07600000  1
  C  C264  1  0.90080000  0.79110000  0.43150000  1
  C  C265  1  0.40080000  0.93150000  0.29110000  1
  C  C266  1  0.72270000  0.62060000  0.24500000  1
  C  C267  1  0.22270000  0.74500000  0.12060000  1
  C  C268  1  0.43850000  0.38890000  0.90550000  1
  C  C269  1  0.93850000  0.40550000  0.88890000  1
  C  C270  1  0.12080000  0.02580000  0.63190000  1
  C  C271  1  0.62080000  0.13190000  0.52580000  1
  C  C272  1  0.98920000  0.88150000  0.51070000  1
  C  C273  1  0.48920000  0.01070000  0.38150000  1
  C  C274  1  0.30200000  0.35360000  0.65890000  1
  C  C275  1  0.80200000  0.15890000  0.85360000  1
  C  C276  1  0.55300000  0.58800000  0.92000000  1
  C  C277  1  0.05300000  0.42000000  0.08800000  1
  C  C278  1  0.83290000  0.79770000  0.26970000  1
  C  C279  1  0.33290000  0.76970000  0.29770000  1
  C  C280  1  0.34930000  0.49480000  0.60200000  1
  C  C281  1  0.84930000  0.10200000  0.99480000  1
  C  C282  1  0.85770000  0.95370000  0.15880000  1
  C  C283  1  0.35770000  0.65880000  0.45370000  1
  C  C284  1  0.79450000  0.46680000  0.51560000  1
  C  C285  1  0.29450000  0.01560000  0.96680000  1
  C  C286  1  0.29500000  0.12730000  0.85260000  1
  C  C287  1  0.79500000  0.35260000  0.62730000  1
  C  C288  1  0.81260000  0.90530000  0.10560000  1
  C  C289  1  0.31260000  0.60560000  0.40530000  1
  C  C290  1  0.31720000  0.29370000  0.72550000  1
  C  C291  1  0.81720000  0.22550000  0.79370000  1
  C  C292  1  0.80390000  0.81820000  0.17080000  1
  C  C293  1  0.30390000  0.67080000  0.31820000  1
  C  C294  1  0.46680000  0.51560000  0.79450000  1
  C  C295  1  0.96680000  0.29450000  0.01560000  1
  C  C296  1  0.45390000  0.59350000  0.69060000  1
  C  C297  1  0.95390000  0.19060000  0.09350000  1
  C  C298  1  0.89800000  0.00520000  0.15070000  1
  C  C299  1  0.39800000  0.65070000  0.50520000  1
  C  C300  1  0.31820000  0.30390000  0.67080000  1
  C  C301  1  0.81820000  0.17080000  0.80390000  1
  C  C302  1  0.65890000  0.30200000  0.35360000  1
  C  C303  1  0.15890000  0.85360000  0.80200000  1
  C  C304  1  0.80940000  0.90650000  0.04610000  1
  C  C305  1  0.30940000  0.54610000  0.40650000  1
  C  C306  1  0.46960000  0.31720000  0.95450000  1
  C  C307  1  0.96960000  0.45450000  0.81720000  1
  C  C308  1  0.14230000  0.06580000  0.55030000  1
  C  C309  1  0.64230000  0.05030000  0.56580000  1
  C  C310  1  0.27110000  0.07440000  0.79860000  1
  C  C311  1  0.77110000  0.29860000  0.57440000  1
  C  C312  1  0.35960000  0.15470000  0.88120000  1
  C  C313  1  0.85960000  0.38120000  0.65470000  1
  C  C314  1  0.89570000  0.00790000  0.09480000  1
  C  C315  1  0.39570000  0.59480000  0.50790000  1
  C  C316  1  0.92000000  0.55300000  0.58800000  1
  C  C317  1  0.42000000  0.08800000  0.05300000  1
  C  C318  1  0.57600000  0.58350000  0.86850000  1
  C  C319  1  0.07600000  0.36850000  0.08350000  1
  C  C320  1  0.64780000  0.57550000  0.01920000  1
  C  C321  1  0.14780000  0.51920000  0.07550000  1
  C  C322  1  0.47420000  0.37920000  0.86810000  1
  C  C323  1  0.97420000  0.36810000  0.87920000  1
  C  C324  1  0.08800000  0.05300000  0.42000000  1
  C  C325  1  0.58800000  0.92000000  0.55300000  1
  C  C326  1  0.85260000  0.96060000  0.04120000  1
  C  C327  1  0.35260000  0.54120000  0.46060000  1
  C  C328  1  0.16240000  0.99300000  0.62790000  1
  C  C329  1  0.66240000  0.12790000  0.49300000  1
  C  C330  1  0.52970000  0.54590000  0.80570000  1
  C  C331  1  0.02970000  0.30570000  0.04590000  1
  C  C332  1  0.94330000  0.76390000  0.41470000  1
  C  C333  1  0.44330000  0.91470000  0.26390000  1
  C  C334  1  0.40520000  0.49210000  0.60430000  1
  C  C335  1  0.90520000  0.10430000  0.99210000  1
  C  C336  1  0.14740000  0.70500000  0.87270000  1
  C  C337  1  0.64740000  0.37270000  0.20500000  1
  C  C338  1  0.05830000  0.98900000  0.40840000  1
  C  C339  1  0.55830000  0.90840000  0.48900000  1
  C  C340  1  0.17080000  0.80390000  0.81820000  1
  C  C341  1  0.67080000  0.31820000  0.30390000  1
  C  C342  1  0.03080000  0.85170000  0.49020000  1
  C  C343  1  0.53080000  0.99020000  0.35170000  1
  C  C344  1  0.08350000  0.07600000  0.36850000  1
  C  C345  1  0.58350000  0.86850000  0.57600000  1
  C  C346  1  0.84470000  0.44460000  0.52180000  1
  C  C347  1  0.34470000  0.02180000  0.94460000  1
  C  C348  1  0.87940000  0.77730000  0.25500000  1
  C  C349  1  0.37940000  0.75500000  0.27730000  1
  C  C350  1  0.70250000  0.28450000  0.39380000  1
  C  C351  1  0.20250000  0.89380000  0.78450000  1
  C  C352  1  0.45880000  0.53940000  0.64740000  1
  C  C353  1  0.95880000  0.14740000  0.03940000  1
  C  C354  1  0.61850000  0.51080000  0.98930000  1
  C  C355  1  0.11850000  0.48930000  0.01080000  1
  C  C356  1  0.85360000  0.80200000  0.15890000  1
  C  C357  1  0.35360000  0.65890000  0.30200000  1
  C  C358  1  0.20140000  0.72890000  0.92560000  1
  C  C359  1  0.70140000  0.42560000  0.22890000  1
  C  C360  1  0.70890000  0.59920000  0.06850000  1
  C  C361  1  0.20890000  0.56850000  0.09920000  1
  C  C362  1  0.11880000  0.64040000  0.84530000  1
  C  C363  1  0.61880000  0.34530000  0.14040000  1
  C  C364  1  0.02180000  0.94460000  0.34470000  1
  C  C365  1  0.52180000  0.84470000  0.44460000  1
  C  C366  1  0.04590000  0.02970000  0.30570000  1
  C  C367  1  0.54590000  0.80570000  0.52970000  1
  C  C368  1  0.90840000  0.48900000  0.55830000  1
  C  C369  1  0.40840000  0.05830000  0.98900000  1
  C  C370  1  0.01560000  0.96680000  0.29450000  1
  C  C371  1  0.51560000  0.79450000  0.46680000  1
  C  C372  1  0.01010000  0.79580000  0.44380000  1
  C  C373  1  0.51010000  0.94380000  0.29580000  1
  C  C374  1  0.50440000  0.30690000  0.91410000  1
  C  C375  1  0.00440000  0.41410000  0.80690000  1
  C  C376  1  0.18280000  0.03040000  0.54550000  1
  C  C377  1  0.68280000  0.04550000  0.53040000  1
  C  C378  1  0.89380000  0.78450000  0.20250000  1
  C  C379  1  0.39380000  0.70250000  0.28450000  1
  C  C380  1  0.31000000  0.04980000  0.76840000  1
  C  C381  1  0.81000000  0.26840000  0.54980000  1
  C  C382  1  0.50700000  0.33760000  0.87210000  1
  C  C383  1  0.00700000  0.37210000  0.83760000  1
  C  C384  1  0.19310000  0.99560000  0.58590000  1
  C  C385  1  0.69310000  0.08590000  0.49560000  1
  C  C386  1  0.39990000  0.13200000  0.85400000  1
  C  C387  1  0.89990000  0.35400000  0.63200000  1
  C  C388  1  0.51920000  0.07550000  0.14780000  1
  C  C389  1  0.01920000  0.64780000  0.57550000  1
  C  C390  1  0.64830000  0.46920000  0.00980000  1
  C  C391  1  0.14830000  0.50980000  0.96920000  1
  C  C392  1  0.23160000  0.69000000  0.95020000  1
  C  C393  1  0.73160000  0.45020000  0.19000000  1
  C  C394  1  0.14600000  0.60010000  0.86800000  1
  C  C395  1  0.64600000  0.36800000  0.10010000  1
  C  C396  1  0.56850000  0.09920000  0.20890000  1
  C  C397  1  0.06850000  0.70890000  0.59920000  1
  C  C398  1  0.73610000  0.55670000  0.08530000  1
  C  C399  1  0.23610000  0.58530000  0.05670000  1
  C  C400  1  0.22550000  0.79370000  0.81720000  1
  C  C401  1  0.72550000  0.31720000  0.29370000  1
  C  C402  1  0.48930000  0.01080000  0.11850000  1
  C  C403  1  0.98930000  0.61850000  0.51080000  1
  C  C404  1  0.75500000  0.27730000  0.37940000  1
  C  C405  1  0.25500000  0.87940000  0.77730000  1
  C  C406  1  0.70420000  0.42150000  0.12490000  1
  C  C407  1  0.20420000  0.62490000  0.92150000  1
  C  C408  1  0.70420000  0.48990000  0.05620000  1
  C  C409  1  0.20420000  0.55620000  0.98990000  1
  C  C410  1  0.87510000  0.29580000  0.57850000  1
  C  C411  1  0.37510000  0.07850000  0.79580000  1
  C  C412  1  0.58530000  0.05670000  0.23610000  1
  C  C413  1  0.04550000  0.53040000  0.68280000  1
  C  C414  1  0.54550000  0.18280000  0.03040000  1
  C  C415  1  0.08530000  0.73610000  0.55670000  1
  C  C416  1  0.36810000  0.87920000  0.97420000  1
  C  C417  1  0.86810000  0.47420000  0.37920000  1
  C  C418  1  0.45370000  0.35770000  0.65880000  1
  C  C419  1  0.95370000  0.15880000  0.85770000  1
  C  C420  1  0.40530000  0.31260000  0.60560000  1
  C  C421  1  0.90530000  0.10560000  0.81260000  1
  C  C422  1  0.05030000  0.56580000  0.64230000  1
  C  C423  1  0.55030000  0.14230000  0.06580000  1
  C  C424  1  0.37270000  0.20500000  0.64740000  1
  C  C425  1  0.87270000  0.14740000  0.70500000  1
  C  C426  1  0.37210000  0.83760000  0.00700000  1
  C  C427  1  0.87210000  0.50700000  0.33760000  1
  C  C428  1  0.50980000  0.96920000  0.14830000  1
  C  C429  1  0.00980000  0.64830000  0.46920000  1
  C  C430  1  0.76970000  0.29770000  0.33290000  1
  C  C431  1  0.26970000  0.83290000  0.79770000  1
  C  C432  1  0.55620000  0.98990000  0.20420000  1
  C  C433  1  0.05620000  0.70420000  0.48990000  1
  C  C434  1  0.42560000  0.22890000  0.70140000  1
  C  C435  1  0.92560000  0.20140000  0.72890000  1
  C  C436  1  0.05140000  0.76390000  0.41640000  1
  C  C437  1  0.55140000  0.91640000  0.26390000  1
  C  C438  1  0.34530000  0.14040000  0.61880000  1
  C  C439  1  0.84530000  0.11880000  0.64040000  1
  C  C440  1  0.73610000  0.44860000  0.08360000  1
  C  C441  1  0.23610000  0.58360000  0.94860000  1
  C  C442  1  0.40650000  0.30940000  0.54610000  1
  C  C443  1  0.90650000  0.04610000  0.80940000  1
  C  C444  1  0.50520000  0.39800000  0.65070000  1
  C  C445  1  0.00520000  0.15070000  0.89800000  1
  C  C446  1  0.03940000  0.95880000  0.14740000  1
  C  C447  1  0.53940000  0.64740000  0.45880000  1
  C  C448  1  0.99210000  0.90520000  0.10430000  1
  C  C449  1  0.49210000  0.60430000  0.40520000  1
  C  C450  1  0.45020000  0.19000000  0.73160000  1
  C  C451  1  0.95020000  0.23160000  0.69000000  1
  C  C452  1  0.58360000  0.94860000  0.23610000  1
  C  C453  1  0.08360000  0.73610000  0.44860000  1
  C  C454  1  0.08590000  0.49560000  0.69310000  1
  C  C455  1  0.58590000  0.19310000  0.99560000  1
  C  C456  1  0.40550000  0.88890000  0.93850000  1
  C  C457  1  0.90550000  0.43850000  0.38890000  1
  C  C458  1  0.07850000  0.79580000  0.37510000  1
  C  C459  1  0.57850000  0.87510000  0.29580000  1
  C  C460  1  0.36800000  0.10010000  0.64600000  1
  C  C461  1  0.86800000  0.14600000  0.60010000  1
  H  H462  1  0.51370000  0.79090000  0.22940000  1
  H  H463  1  0.01370000  0.72940000  0.29090000  1
  H  H464  1  0.69090000  0.17330000  0.20100000  1
  H  H465  1  0.19090000  0.70100000  0.67330000  1
  H  H466  1  0.84710000  0.12540000  0.55490000  1
  H  H467  1  0.34710000  0.05490000  0.62540000  1
  H  H468  1  0.41610000  0.77760000  0.02660000  1
  H  H469  1  0.91610000  0.52660000  0.27760000  1
  H  H470  1  0.59820000  0.08240000  0.08410000  1
  H  H471  1  0.09820000  0.58410000  0.58240000  1
  H  H472  1  0.45990000  0.57120000  0.31210000  1
  H  H473  1  0.95990000  0.81210000  0.07120000  1
  H  H474  1  0.62810000  0.72110000  0.49140000  1
  H  H475  1  0.12810000  0.99140000  0.22110000  1
  H  H476  1  0.04380000  0.09180000  0.92490000  1
  H  H477  1  0.54380000  0.42490000  0.59180000  1
  H  H478  1  0.01140000  0.37330000  0.57590000  1
  H  H479  1  0.51140000  0.07590000  0.87330000  1
  H  H480  1  0.96280000  0.00010000  0.85070000  1
  H  H481  1  0.46280000  0.35070000  0.50010000  1
  H  H482  1  0.69000000  0.87770000  0.42080000  1
  H  H483  1  0.19000000  0.92080000  0.37770000  1
  H  H484  1  0.71920000  0.09830000  0.24170000  1
  H  H485  1  0.21920000  0.74170000  0.59830000  1
  H  H486  1  0.55260000  0.72580000  0.27990000  1
  H  H487  1  0.05260000  0.77990000  0.22580000  1
  H  H488  1  0.06910000  0.22230000  0.80410000  1
  H  H489  1  0.56910000  0.30410000  0.72230000  1
  H  H490  1  0.77760000  0.02660000  0.41610000  1
  H  H491  1  0.27760000  0.91610000  0.52660000  1
  H  H492  1  0.46860000  0.66950000  0.15480000  1
  H  H493  1  0.96860000  0.65480000  0.16950000  1
  H  H494  1  0.88240000  0.22240000  0.42680000  1
  H  H495  1  0.38240000  0.92680000  0.72240000  1
  H  H496  1  0.26530000  0.67050000  0.74010000  1
  H  H497  1  0.76530000  0.24010000  0.17050000  1
  H  H498  1  0.22240000  0.42680000  0.88240000  1
  H  H499  1  0.72240000  0.38240000  0.92680000  1
  H  H500  1  0.55490000  0.84710000  0.12540000  1
  H  H501  1  0.05490000  0.62540000  0.34710000  1
  H  H502  1  0.79670000  0.97000000  0.48540000  1
  H  H503  1  0.29670000  0.98540000  0.47000000  1
  H  H504  1  0.47340000  0.72240000  0.08390000  1
  H  H505  1  0.97340000  0.58390000  0.22240000  1
  H  H506  1  0.55650000  0.93790000  0.02590000  1
  H  H507  1  0.05650000  0.52590000  0.43790000  1
  H  H508  1  0.37460000  0.65290000  0.94510000  1
  H  H509  1  0.87460000  0.44510000  0.15290000  1
  H  H510  1  0.22940000  0.51370000  0.79090000  1
  H  H511  1  0.72940000  0.29090000  0.01370000  1
  H  H512  1  0.54730000  0.63830000  0.29950000  1
  H  H513  1  0.04730000  0.79950000  0.13830000  1
  H  H514  1  0.37330000  0.57590000  0.01140000  1
  H  H515  1  0.87330000  0.51140000  0.07590000  1
  H  H516  1  0.70910000  0.98630000  0.27060000  1
  H  H517  1  0.20910000  0.77060000  0.48630000  1
  H  H518  1  0.04520000  0.42180000  0.50680000  1
  H  H519  1  0.54520000  0.00680000  0.92180000  1
  H  H520  1  0.15480000  0.46860000  0.66950000  1
  H  H521  1  0.65480000  0.16950000  0.96860000  1
  H  H522  1  0.50010000  0.46280000  0.35070000  1
  H  H523  1  0.00010000  0.85070000  0.96280000  1
  H  H524  1  0.91030000  0.26880000  0.35580000  1
  H  H525  1  0.41030000  0.85580000  0.76880000  1
  H  H526  1  0.16120000  0.52340000  0.59870000  1
  H  H527  1  0.66120000  0.09870000  0.02340000  1
  H  H528  1  0.13910000  0.19730000  0.87970000  1
  H  H529  1  0.63910000  0.37970000  0.69730000  1
  H  H530  1  0.48540000  0.79670000  0.97000000  1
  H  H531  1  0.98540000  0.47000000  0.29670000  1
  H  H532  1  0.01010000  0.06190000  0.74800000  1
  H  H533  1  0.51010000  0.24800000  0.56190000  1
  H  H534  1  0.59180000  0.54380000  0.42490000  1
  H  H535  1  0.09180000  0.92490000  0.04380000  1
  H  H536  1  0.45650000  0.45800000  0.23000000  1
  H  H537  1  0.95650000  0.73000000  0.95800000  1
  H  H538  1  0.66290000  0.99790000  0.09980000  1
  H  H539  1  0.16290000  0.59980000  0.49790000  1
  H  H540  1  0.95800000  0.95650000  0.73000000  1
  H  H541  1  0.45800000  0.23000000  0.45650000  1
  H  H542  1  0.92410000  0.12670000  0.48860000  1
  H  H543  1  0.42410000  0.98860000  0.62670000  1
  H  H544  1  0.99790000  0.09980000  0.66290000  1
  H  H545  1  0.49790000  0.16290000  0.59980000  1
  H  H546  1  0.09830000  0.24170000  0.71920000  1
  H  H547  1  0.59830000  0.21920000  0.74170000  1
  H  H548  1  0.38020000  0.39550000  0.12460000  1
  H  H549  1  0.88020000  0.62460000  0.89550000  1
  H  H550  1  0.07320000  0.27760000  0.61760000  1
  H  H551  1  0.57320000  0.11760000  0.77760000  1
  H  H552  1  0.64930000  0.49990000  0.53720000  1
  H  H553  1  0.14930000  0.03720000  0.99990000  1
  H  H554  1  0.26880000  0.35580000  0.91030000  1
  H  H555  1  0.76880000  0.41030000  0.85580000  1
  H  H556  1  0.42080000  0.69000000  0.87770000  1
  H  H557  1  0.92080000  0.37770000  0.19000000  1
  H  H558  1  0.27990000  0.55260000  0.72580000  1
  H  H559  1  0.77990000  0.22580000  0.05260000  1
  H  H560  1  0.83050000  0.03140000  0.34520000  1
  H  H561  1  0.33050000  0.84520000  0.53140000  1
  H  H562  1  0.57510000  0.40820000  0.45620000  1
  H  H563  1  0.07510000  0.95620000  0.90820000  1
  H  H564  1  0.89550000  0.88020000  0.62460000  1
  H  H565  1  0.39550000  0.12460000  0.38020000  1
  H  H566  1  0.52340000  0.59870000  0.16120000  1
  H  H567  1  0.02340000  0.66120000  0.09870000  1
  H  H568  1  0.42180000  0.50680000  0.04520000  1
  H  H569  1  0.92180000  0.54520000  0.00680000  1
  H  H570  1  0.93790000  0.02590000  0.55650000  1
  H  H571  1  0.43790000  0.05650000  0.52590000  1
  H  H572  1  0.80410000  0.06910000  0.22230000  1
  H  H573  1  0.30410000  0.72230000  0.56910000  1
  H  H574  1  0.22110000  0.12810000  0.99140000  1
  H  H575  1  0.72110000  0.49140000  0.62810000  1
  H  H576  1  0.25830000  0.40170000  0.78080000  1
  H  H577  1  0.75830000  0.28080000  0.90170000  1
  H  H578  1  0.67050000  0.74010000  0.26530000  1
  H  H579  1  0.17050000  0.76530000  0.24010000  1
  H  H580  1  0.53000000  0.70330000  0.01460000  1
  H  H581  1  0.03000000  0.51460000  0.20330000  1
  H  H582  1  0.62230000  0.81000000  0.07920000  1
  H  H583  1  0.12230000  0.57920000  0.31000000  1
  H  H584  1  0.56190000  0.51010000  0.24800000  1
  H  H585  1  0.06190000  0.74800000  0.01010000  1
  H  H586  1  0.00860000  0.77890000  0.87190000  1
  H  H587  1  0.50860000  0.37190000  0.27890000  1
  H  H588  1  0.07120000  0.95990000  0.81210000  1
  H  H589  1  0.57120000  0.31210000  0.45990000  1
  H  H590  1  0.69730000  0.63910000  0.37970000  1
  H  H591  1  0.19730000  0.87970000  0.13910000  1
  H  H592  1  0.77420000  0.94740000  0.22010000  1
  H  H593  1  0.27420000  0.72010000  0.44740000  1
  H  H594  1  0.18790000  0.92880000  0.04010000  1
  H  H595  1  0.68790000  0.54010000  0.42880000  1
  H  H596  1  0.29950000  0.54730000  0.63830000  1
  H  H597  1  0.79950000  0.13830000  0.04730000  1
  H  H598  1  0.87970000  0.13910000  0.19730000  1
  H  H599  1  0.37970000  0.69730000  0.63910000  1
  H  H600  1  0.74800000  0.01010000  0.06190000  1
  H  H601  1  0.24800000  0.56190000  0.51010000  1
  H  H602  1  0.27770000  0.43090000  0.69590000  1
  H  H603  1  0.77770000  0.19590000  0.93090000  1
  H  H604  1  0.13830000  0.04730000  0.79950000  1
  H  H605  1  0.63830000  0.29950000  0.54730000  1
  H  H606  1  0.47410000  0.56210000  0.94350000  1
  H  H607  1  0.97410000  0.44350000  0.06210000  1
  H  H608  1  0.99320000  0.07820000  0.45480000  1
  H  H609  1  0.49320000  0.95480000  0.57820000  1
  H  H610  1  0.27000000  0.04200000  0.04350000  1
  H  H611  1  0.77000000  0.54350000  0.54200000  1
  H  H612  1  0.17330000  0.20100000  0.69090000  1
  H  H613  1  0.67330000  0.19090000  0.70100000  1
  H  H614  1  0.75990000  0.82950000  0.23470000  1
  H  H615  1  0.25990000  0.73470000  0.32950000  1
  H  H616  1  0.40020000  0.50210000  0.83710000  1
  H  H617  1  0.90020000  0.33710000  0.00210000  1
  H  H618  1  0.29900000  0.32670000  0.80910000  1
  H  H619  1  0.79900000  0.30910000  0.82670000  1
  H  H620  1  0.14420000  0.23120000  0.58970000  1
  H  H621  1  0.64420000  0.08970000  0.73120000  1
  H  H622  1  0.12460000  0.38020000  0.39550000  1
  H  H623  1  0.62460000  0.89550000  0.88020000  1
  H  H624  1  0.08240000  0.08410000  0.59820000  1
  H  H625  1  0.58240000  0.09820000  0.58410000  1
  H  H626  1  0.90130000  0.97660000  0.33880000  1
  H  H627  1  0.40130000  0.83880000  0.47660000  1
  H  H628  1  0.58410000  0.58240000  0.09820000  1
  H  H629  1  0.08410000  0.59820000  0.08240000  1
  H  H630  1  0.41590000  0.41760000  0.90180000  1
  H  H631  1  0.91590000  0.40180000  0.91760000  1
  H  H632  1  0.09870000  0.02340000  0.66120000  1
  H  H633  1  0.59870000  0.16120000  0.52340000  1
  H  H634  1  0.91760000  0.91590000  0.40180000  1
  H  H635  1  0.41760000  0.90180000  0.41590000  1
  H  H636  1  0.37540000  0.10450000  0.11980000  1
  H  H637  1  0.87540000  0.61980000  0.60450000  1
  H  H638  1  0.85580000  0.76880000  0.41030000  1
  H  H639  1  0.35580000  0.91030000  0.26880000  1
  H  H640  1  0.70100000  0.67330000  0.19090000  1
  H  H641  1  0.20100000  0.69090000  0.17330000  1
  H  H642  1  0.59980000  0.49790000  0.16290000  1
  H  H643  1  0.09980000  0.66290000  0.99790000  1
  H  H644  1  0.24010000  0.17050000  0.76530000  1
  H  H645  1  0.74010000  0.26530000  0.67050000  1
  H  H646  1  0.82670000  0.79900000  0.30910000  1
  H  H647  1  0.32670000  0.80910000  0.29900000  1
  H  H648  1  0.23000000  0.45650000  0.45800000  1
  H  H649  1  0.73000000  0.95800000  0.95650000  1
  H  H650  1  0.00680000  0.92180000  0.54520000  1
  H  H651  1  0.50680000  0.04520000  0.42180000  1
  H  H652  1  0.52590000  0.43790000  0.05650000  1
  H  H653  1  0.02590000  0.55650000  0.93790000  1
  H  H654  1  0.86170000  0.95270000  0.20050000  1
  H  H655  1  0.36170000  0.70050000  0.45270000  1
  H  H656  1  0.72230000  0.56910000  0.30410000  1
  H  H657  1  0.22230000  0.80410000  0.06910000  1
  H  H658  1  0.75200000  0.43810000  0.48990000  1
  H  H659  1  0.25200000  0.98990000  0.93810000  1
  H  H660  1  0.62030000  0.30270000  0.36090000  1
  H  H661  1  0.12030000  0.86090000  0.80270000  1
  H  H662  1  0.20050000  0.86170000  0.95270000  1
  H  H663  1  0.70050000  0.45270000  0.36170000  1
  H  H664  1  0.31210000  0.45990000  0.57120000  1
  H  H665  1  0.81210000  0.07120000  0.95990000  1
  H  H666  1  0.22580000  0.05260000  0.77990000  1
  H  H667  1  0.72580000  0.27990000  0.55260000  1
  H  H668  1  0.30270000  0.36090000  0.62030000  1
  H  H669  1  0.80270000  0.12030000  0.86090000  1
  H  H670  1  0.92880000  0.04010000  0.18790000  1
  H  H671  1  0.42880000  0.68790000  0.54010000  1
  H  H672  1  0.49140000  0.62810000  0.72110000  1
  H  H673  1  0.99140000  0.22110000  0.12810000  1
  H  H674  1  0.43810000  0.48990000  0.75200000  1
  H  H675  1  0.93810000  0.25200000  0.98990000  1
  H  H676  1  0.37770000  0.19000000  0.92080000  1
  H  H677  1  0.87770000  0.42080000  0.69000000  1
  H  H678  1  0.47000000  0.29670000  0.98540000  1
  H  H679  1  0.97000000  0.48540000  0.79670000  1
  H  H680  1  0.32950000  0.25990000  0.73470000  1
  H  H681  1  0.82950000  0.23470000  0.75990000  1
  H  H682  1  0.74170000  0.59830000  0.21920000  1
  H  H683  1  0.24170000  0.71920000  0.09830000  1
  H  H684  1  0.77890000  0.87190000  0.00860000  1
  H  H685  1  0.27890000  0.50860000  0.37190000  1
  H  H686  1  0.69590000  0.27770000  0.43090000  1
  H  H687  1  0.19590000  0.93090000  0.77770000  1
  H  H688  1  0.06210000  0.97410000  0.44350000  1
  H  H689  1  0.56210000  0.94350000  0.47410000  1
  H  H690  1  0.57820000  0.49320000  0.95480000  1
  H  H691  1  0.07820000  0.45480000  0.99320000  1
  H  H692  1  0.47660000  0.40130000  0.83880000  1
  H  H693  1  0.97660000  0.33880000  0.90130000  1
  H  H694  1  0.10450000  0.11980000  0.37540000  1
  H  H695  1  0.60450000  0.87540000  0.61980000  1
  H  H696  1  0.92490000  0.04380000  0.09180000  1
  H  H697  1  0.42490000  0.59180000  0.54380000  1
  H  H698  1  0.16950000  0.96860000  0.65480000  1
  H  H699  1  0.66950000  0.15480000  0.46860000  1
  H  H700  1  0.22010000  0.77420000  0.94740000  1
  H  H701  1  0.72010000  0.44740000  0.27420000  1
  H  H702  1  0.07920000  0.62230000  0.81000000  1
  H  H703  1  0.57920000  0.31000000  0.12230000  1
  H  H704  1  0.73120000  0.64420000  0.08970000  1
  H  H705  1  0.23120000  0.58970000  0.14420000  1
  H  H706  1  0.85070000  0.96280000  0.00010000  1
  H  H707  1  0.35070000  0.50010000  0.46280000  1
  H  H708  1  0.92680000  0.72240000  0.38240000  1
  H  H709  1  0.42680000  0.88240000  0.22240000  1
  H  H710  1  0.61980000  0.60450000  0.87540000  1
  H  H711  1  0.11980000  0.37540000  0.10450000  1
  H  H712  1  0.90170000  0.75830000  0.28080000  1
  H  H713  1  0.40170000  0.78080000  0.25830000  1
  H  H714  1  0.00210000  0.90020000  0.33710000  1
  H  H715  1  0.50210000  0.83710000  0.40020000  1
  H  H716  1  0.07590000  0.87330000  0.51140000  1
  H  H717  1  0.57590000  0.01140000  0.37330000  1
  H  H718  1  0.04200000  0.04350000  0.27000000  1
  H  H719  1  0.54200000  0.77000000  0.54350000  1
  H  H720  1  0.83710000  0.40020000  0.50210000  1
  H  H721  1  0.33710000  0.00210000  0.90020000  1
  H  H722  1  0.54350000  0.54200000  0.77000000  1
  H  H723  1  0.04350000  0.27000000  0.04200000  1
  H  H724  1  0.40820000  0.45620000  0.57510000  1
  H  H725  1  0.90820000  0.07510000  0.95620000  1
  H  H726  1  0.98990000  0.93810000  0.25200000  1
  H  H727  1  0.48990000  0.75200000  0.43810000  1
  H  H728  1  0.01460000  0.53000000  0.70330000  1
  H  H729  1  0.51460000  0.20330000  0.03000000  1
  H  H730  1  0.86090000  0.80270000  0.12030000  1
  H  H731  1  0.36090000  0.62030000  0.30270000  1
  H  H732  1  0.33880000  0.90130000  0.97660000  1
  H  H733  1  0.83880000  0.47660000  0.40130000  1
  H  H734  1  0.58970000  0.14420000  0.23120000  1
  H  H735  1  0.08970000  0.73120000  0.64420000  1
  H  H736  1  0.49990000  0.53720000  0.64930000  1
  H  H737  1  0.99990000  0.14930000  0.03720000  1
  H  H738  1  0.34520000  0.83050000  0.03140000  1
  H  H739  1  0.84520000  0.53140000  0.33050000  1
  H  H740  1  0.45480000  0.99320000  0.07820000  1
  H  H741  1  0.95480000  0.57820000  0.49320000  1
  H  H742  1  0.29090000  0.01370000  0.72940000  1
  H  H743  1  0.79090000  0.22940000  0.51370000  1
  H  H744  1  0.62670000  0.42410000  0.98860000  1
  H  H745  1  0.12670000  0.48860000  0.92410000  1
  H  H746  1  0.45270000  0.36170000  0.70050000  1
  H  H747  1  0.95270000  0.20050000  0.86170000  1
  H  H748  1  0.27060000  0.70910000  0.98630000  1
  H  H749  1  0.77060000  0.48630000  0.20910000  1
  H  H750  1  0.62540000  0.34710000  0.05490000  1
  H  H751  1  0.12540000  0.55490000  0.84710000  1
  H  H752  1  0.94350000  0.47410000  0.56210000  1
  H  H753  1  0.44350000  0.06210000  0.97410000  1
  H  H754  1  0.52660000  0.27760000  0.91610000  1
  H  H755  1  0.02660000  0.41610000  0.77760000  1
  H  H756  1  0.20330000  0.03000000  0.51460000  1
  H  H757  1  0.70330000  0.01460000  0.53000000  1
  H  H758  1  0.94510000  0.37460000  0.65290000  1
  H  H759  1  0.44510000  0.15290000  0.87460000  1
  H  H760  1  0.77760000  0.57320000  0.11760000  1
  H  H761  1  0.27760000  0.61760000  0.07320000  1
  H  H762  1  0.23470000  0.75990000  0.82950000  1
  H  H763  1  0.73470000  0.32950000  0.25990000  1
  H  H764  1  0.61760000  0.07320000  0.27760000  1
  H  H765  1  0.11760000  0.77760000  0.57320000  1
  H  H766  1  0.53140000  0.33050000  0.84520000  1
  H  H767  1  0.03140000  0.34520000  0.83050000  1
  H  H768  1  0.22240000  0.97340000  0.58390000  1
  H  H769  1  0.72240000  0.08390000  0.47340000  1
  H  H770  1  0.93090000  0.77770000  0.19590000  1
  H  H771  1  0.43090000  0.69590000  0.27770000  1
  H  H772  1  0.44740000  0.27420000  0.72010000  1
  H  H773  1  0.94740000  0.22010000  0.77420000  1
  H  H774  1  0.78080000  0.25830000  0.40170000  1
  H  H775  1  0.28080000  0.90170000  0.75830000  1
  H  H776  1  0.31000000  0.12230000  0.57920000  1
  H  H777  1  0.81000000  0.07920000  0.62230000  1
  H  H778  1  0.03720000  0.99990000  0.14930000  1
  H  H779  1  0.53720000  0.64930000  0.49990000  1
  H  H780  1  0.48860000  0.92410000  0.12670000  1
  H  H781  1  0.98860000  0.62670000  0.42410000  1
  H  H782  1  0.95620000  0.90820000  0.07510000  1
  H  H783  1  0.45620000  0.57510000  0.40820000  1
  H  H784  1  0.37190000  0.27890000  0.50860000  1
  H  H785  1  0.87190000  0.00860000  0.77890000  1
  H  H786  1  0.54010000  0.42880000  0.68790000  1
  H  H787  1  0.04010000  0.18790000  0.92880000  1
  H  H788  1  0.90180000  0.41590000  0.41760000  1
  H  H789  1  0.40180000  0.91760000  0.91590000  1
  H  H790  1  0.08390000  0.47340000  0.72240000  1
  H  H791  1  0.58390000  0.22240000  0.97340000  1
  H  H792  1  0.15290000  0.87460000  0.44510000  1
  H  H793  1  0.65290000  0.94510000  0.37460000  1
  H  H794  1  0.80910000  0.29900000  0.32670000  1
  H  H795  1  0.30910000  0.82670000  0.79900000  1
  H  H796  1  0.48630000  0.20910000  0.77060000  1
  H  H797  1  0.98630000  0.27060000  0.70910000  1
  O  O798  1  0.75000000  0.92680000  0.57320000  1
  O  O799  1  0.25000000  0.07320000  0.42680000  1
  O  O800  1  0.74800000  0.83550000  0.58610000  1
  O  O801  1  0.24800000  0.08610000  0.33550000  1
  O  O802  1  0.33550000  0.24800000  0.08610000  1
  O  O803  1  0.83550000  0.58610000  0.74800000  1
  O  O804  1  0.91390000  0.66450000  0.75200000  1
  O  O805  1  0.41390000  0.25200000  0.16450000  1
  O  O806  1  0.57320000  0.75000000  0.92680000  1
  O  O807  1  0.07320000  0.42680000  0.25000000  1
  O  O808  1  0.92680000  0.57320000  0.75000000  1
  O  O809  1  0.42680000  0.25000000  0.07320000  1
  O  O810  1  0.58610000  0.74800000  0.83550000  1
  O  O811  1  0.08610000  0.33550000  0.24800000  1
  O  O812  1  0.66450000  0.75200000  0.91390000  1
  O  O813  1  0.16450000  0.41390000  0.25200000  1
  O  O814  1  0.25200000  0.16450000  0.41390000  1
  O  O815  1  0.75200000  0.91390000  0.66450000  1
  P  P816  1  0.66282000  0.74657000  0.39011000  1
  P  P817  1  0.16282000  0.89011000  0.24657000  1
  P  P818  1  0.50036000  0.86725000  0.88725000  1
  P  P819  1  0.00036000  0.38725000  0.36725000  1
  P  P820  1  0.86725000  0.88725000  0.50036000  1
  P  P821  1  0.36725000  0.00036000  0.38725000  1
  P  P822  1  0.39011000  0.66282000  0.74657000  1
  P  P823  1  0.89011000  0.24657000  0.16282000  1
  P  P824  1  0.38725000  0.36725000  0.00036000  1
  P  P825  1  0.88725000  0.50036000  0.86725000  1
  P  P826  1  0.24657000  0.16282000  0.89011000  1
  P  P827  1  0.74657000  0.39011000  0.66282000  1
  P  P828  1  0.75343000  0.83718000  0.10989000  1
  P  P829  1  0.25343000  0.60989000  0.33718000  1
  P  P830  1  0.61275000  0.63275000  0.99964000  1
  P  P831  1  0.11275000  0.49964000  0.13275000  1
  P  P832  1  0.10989000  0.75343000  0.83718000  1
  P  P833  1  0.60989000  0.33718000  0.25343000  1
  P  P834  1  0.13275000  0.11275000  0.49964000  1
  P  P835  1  0.63275000  0.99964000  0.61275000  1
  P  P836  1  0.99964000  0.61275000  0.63275000  1
  P  P837  1  0.49964000  0.13275000  0.11275000  1
  P  P838  1  0.33718000  0.25343000  0.60989000  1
  P  P839  1  0.83718000  0.10989000  0.75343000  1
