# generated using pymatgen
data_Ni7H104C132(N10O9)2
_symmetry_space_group_name_H-M   'P 1'
_cell_length_a   17.59100000
_cell_length_b   19.05800000
_cell_length_c   22.78100000
_cell_angle_alpha   90.00000000
_cell_angle_beta   90.00000000
_cell_angle_gamma   93.22500000
_symmetry_Int_Tables_number   1
_chemical_formula_structural   Ni7H104C132(N10O9)2
_chemical_formula_sum   'Ni14 H208 C264 N40 O36'
_cell_volume   7625.21868304
_cell_formula_units_Z   2
loop_
 _symmetry_equiv_pos_site_id
 _symmetry_equiv_pos_as_xyz
  1  'x, y, z'
loop_
 _atom_site_type_symbol
 _atom_site_label
 _atom_site_symmetry_multiplicity
 _atom_site_fract_x
 _atom_site_fract_y
 _atom_site_fract_z
 _atom_site_occupancy
  Ni  Ni0  1  0.98225000  0.17533000  0.36090000  1
  Ni  Ni1  1  0.98225000  0.67533000  0.13910000  1
  Ni  Ni2  1  0.54115000  0.61921000  0.41520000  1
  Ni  Ni3  1  0.54115000  0.11921000  0.08480000  1
  Ni  Ni4  1  0.53937000  0.04959000  0.87471000  1
  Ni  Ni5  1  0.53937000  0.54959000  0.62529000  1
  Ni  Ni6  1  0.50000000  1.00000000  0.00000000  1
  Ni  Ni7  1  0.50000000  0.50000000  0.50000000  1
  Ni  Ni8  1  0.46063000  0.45041000  0.37471000  1
  Ni  Ni9  1  0.46063000  0.95041000  0.12529000  1
  Ni  Ni10  1  0.45885000  0.88079000  0.91520000  1
  Ni  Ni11  1  0.45885000  0.38079000  0.58480000  1
  Ni  Ni12  1  0.01775000  0.32467000  0.86090000  1
  Ni  Ni13  1  0.01775000  0.82467000  0.63910000  1
  H  H14  1  0.98680000  0.04370000  0.84420000  1
  H  H15  1  0.98680000  0.54370000  0.65580000  1
  H  H16  1  0.98120000  0.62300000  0.43310000  1
  H  H17  1  0.98120000  0.12300000  0.06690000  1
  H  H18  1  0.97190000  0.45960000  0.93180000  1
  H  H19  1  0.97190000  0.95960000  0.56820000  1
  H  H20  1  0.96590000  0.43000000  0.99610000  1
  H  H21  1  0.96590000  0.93000000  0.50390000  1
  H  H22  1  0.96450000  0.16750000  0.76310000  1
  H  H23  1  0.96450000  0.66750000  0.73690000  1
  H  H24  1  0.95900000  0.81840000  0.48270000  1
  H  H25  1  0.95900000  0.31840000  0.01730000  1
  H  H26  1  0.95450000  0.69960000  0.42590000  1
  H  H27  1  0.95450000  0.19960000  0.07410000  1
  H  H28  1  0.95260000  0.75500000  0.29030000  1
  H  H29  1  0.95260000  0.25500000  0.20970000  1
  H  H30  1  0.92560000  0.94540000  0.98500000  1
  H  H31  1  0.92560000  0.44540000  0.51500000  1
  H  H32  1  0.91750000  0.12390000  0.48330000  1
  H  H33  1  0.91750000  0.62390000  0.01670000  1
  H  H34  1  0.91740000  0.99260000  0.38680000  1
  H  H35  1  0.91740000  0.49260000  0.11320000  1
  H  H36  1  0.91710000  0.40640000  0.27280000  1
  H  H37  1  0.91710000  0.90640000  0.22720000  1
  H  H38  1  0.90570000  0.04220000  0.47430000  1
  H  H39  1  0.90570000  0.54220000  0.02570000  1
  H  H40  1  0.89990000  0.12590000  0.93910000  1
  H  H41  1  0.89990000  0.62590000  0.56090000  1
  H  H42  1  0.89520000  0.27540000  0.98230000  1
  H  H43  1  0.89520000  0.77540000  0.51770000  1
  H  H44  1  0.89440000  0.90950000  0.29370000  1
  H  H45  1  0.89440000  0.40950000  0.20630000  1
  H  H46  1  0.88780000  0.98030000  0.88840000  1
  H  H47  1  0.88780000  0.48030000  0.61160000  1
  H  H48  1  0.88610000  0.58330000  0.78010000  1
  H  H49  1  0.88610000  0.08330000  0.71990000  1
  H  H50  1  0.88190000  0.79340000  0.36820000  1
  H  H51  1  0.88190000  0.29340000  0.13180000  1
  H  H52  1  0.87920000  0.83620000  0.76140000  1
  H  H53  1  0.87920000  0.33620000  0.73860000  1
  H  H54  1  0.86950000  0.40210000  0.88510000  1
  H  H55  1  0.86950000  0.90210000  0.61490000  1
  H  H56  1  0.85660000  0.55790000  0.28920000  1
  H  H57  1  0.85660000  0.05790000  0.21080000  1
  H  H58  1  0.85210000  0.01980000  0.34740000  1
  H  H59  1  0.85210000  0.51980000  0.15260000  1
  H  H60  1  0.83850000  0.31040000  0.35310000  1
  H  H61  1  0.83850000  0.81040000  0.14690000  1
  H  H62  1  0.83460000  0.87840000  0.84780000  1
  H  H63  1  0.83460000  0.37840000  0.65220000  1
  H  H64  1  0.83280000  0.36050000  0.93880000  1
  H  H65  1  0.83280000  0.86050000  0.56120000  1
  H  H66  1  0.83250000  0.64050000  0.39380000  1
  H  H67  1  0.83250000  0.14050000  0.10620000  1
  H  H68  1  0.82780000  0.48000000  0.45760000  1
  H  H69  1  0.82780000  0.98000000  0.04240000  1
  H  H70  1  0.82190000  0.16210000  0.42630000  1
  H  H71  1  0.82190000  0.66210000  0.07370000  1
  H  H72  1  0.78600000  0.09150000  0.39950000  1
  H  H73  1  0.78600000  0.59150000  0.10050000  1
  H  H74  1  0.78370000  0.41510000  0.37760000  1
  H  H75  1  0.78370000  0.91510000  0.12240000  1
  H  H76  1  0.77650000  0.09130000  0.91170000  1
  H  H77  1  0.77650000  0.59130000  0.58830000  1
  H  H78  1  0.76130000  0.87750000  0.27080000  1
  H  H79  1  0.76130000  0.37750000  0.22920000  1
  H  H80  1  0.75740000  0.57480000  0.76030000  1
  H  H81  1  0.75740000  0.07480000  0.73970000  1
  H  H82  1  0.75330000  0.77950000  0.37020000  1
  H  H83  1  0.75330000  0.27950000  0.12980000  1
  H  H84  1  0.74170000  0.58930000  0.32210000  1
  H  H85  1  0.74170000  0.08930000  0.17790000  1
  H  H86  1  0.72020000  0.29640000  0.92270000  1
  H  H87  1  0.72020000  0.79640000  0.57730000  1
  H  H88  1  0.71150000  0.60280000  0.42000000  1
  H  H89  1  0.71150000  0.10280000  0.08000000  1
  H  H90  1  0.70830000  0.30260000  0.76830000  1
  H  H91  1  0.70830000  0.80260000  0.73170000  1
  H  H92  1  0.70240000  0.15090000  0.80370000  1
  H  H93  1  0.70240000  0.65090000  0.69630000  1
  H  H94  1  0.68550000  0.28950000  0.32000000  1
  H  H95  1  0.68550000  0.78950000  0.18000000  1
  H  H96  1  0.68530000  0.72330000  0.29530000  1
  H  H97  1  0.68530000  0.22330000  0.20470000  1
  H  H98  1  0.67980000  0.23870000  0.88260000  1
  H  H99  1  0.67980000  0.73870000  0.61740000  1
  H  H100  1  0.67970000  0.10510000  0.34150000  1
  H  H101  1  0.67970000  0.60510000  0.15850000  1
  H  H102  1  0.67030000  0.89490000  0.78550000  1
  H  H103  1  0.67030000  0.39490000  0.71450000  1
  H  H104  1  0.65160000  0.39110000  0.90850000  1
  H  H105  1  0.65160000  0.89110000  0.59150000  1
  H  H106  1  0.64990000  0.14270000  0.28560000  1
  H  H107  1  0.64990000  0.64270000  0.21440000  1
  H  H108  1  0.64580000  0.40830000  0.26350000  1
  H  H109  1  0.64580000  0.90830000  0.23650000  1
  H  H110  1  0.62840000  0.36990000  0.37930000  1
  H  H111  1  0.62840000  0.86990000  0.12070000  1
  H  H112  1  0.60680000  0.48600000  0.85470000  1
  H  H113  1  0.60680000  0.98600000  0.64530000  1
  H  H114  1  0.58330000  0.13220000  0.41010000  1
  H  H115  1  0.58330000  0.63220000  0.08990000  1
  H  H116  1  0.52780000  0.21410000  0.47110000  1
  H  H117  1  0.52780000  0.71410000  0.02890000  1
  H  H118  1  0.47220000  0.28590000  0.97110000  1
  H  H119  1  0.47220000  0.78590000  0.52890000  1
  H  H120  1  0.41670000  0.36780000  0.91010000  1
  H  H121  1  0.41670000  0.86780000  0.58990000  1
  H  H122  1  0.39320000  0.01400000  0.35470000  1
  H  H123  1  0.39320000  0.51400000  0.14530000  1
  H  H124  1  0.37160000  0.13010000  0.87930000  1
  H  H125  1  0.37160000  0.63010000  0.62070000  1
  H  H126  1  0.35420000  0.09170000  0.76350000  1
  H  H127  1  0.35420000  0.59170000  0.73650000  1
  H  H128  1  0.35010000  0.35730000  0.78560000  1
  H  H129  1  0.35010000  0.85730000  0.71440000  1
  H  H130  1  0.34840000  0.10890000  0.40850000  1
  H  H131  1  0.34840000  0.60890000  0.09150000  1
  H  H132  1  0.32970000  0.60510000  0.28550000  1
  H  H133  1  0.32970000  0.10510000  0.21450000  1
  H  H134  1  0.32030000  0.39490000  0.84150000  1
  H  H135  1  0.32030000  0.89490000  0.65850000  1
  H  H136  1  0.32020000  0.26130000  0.38260000  1
  H  H137  1  0.32020000  0.76130000  0.11740000  1
  H  H138  1  0.31470000  0.77670000  0.79530000  1
  H  H139  1  0.31470000  0.27670000  0.70470000  1
  H  H140  1  0.31450000  0.21050000  0.82000000  1
  H  H141  1  0.31450000  0.71050000  0.68000000  1
  H  H142  1  0.29760000  0.34910000  0.30370000  1
  H  H143  1  0.29760000  0.84910000  0.19630000  1
  H  H144  1  0.29170000  0.19740000  0.26830000  1
  H  H145  1  0.29170000  0.69740000  0.23170000  1
  H  H146  1  0.28850000  0.89720000  0.92000000  1
  H  H147  1  0.28850000  0.39720000  0.58000000  1
  H  H148  1  0.27980000  0.20360000  0.42270000  1
  H  H149  1  0.27980000  0.70360000  0.07730000  1
  H  H150  1  0.25830000  0.91070000  0.82210000  1
  H  H151  1  0.25830000  0.41070000  0.67790000  1
  H  H152  1  0.24670000  0.72050000  0.87020000  1
  H  H153  1  0.24670000  0.22050000  0.62980000  1
  H  H154  1  0.24260000  0.92520000  0.26030000  1
  H  H155  1  0.24260000  0.42520000  0.23970000  1
  H  H156  1  0.23870000  0.62250000  0.77080000  1
  H  H157  1  0.23870000  0.12250000  0.72920000  1
  H  H158  1  0.22350000  0.40870000  0.41170000  1
  H  H159  1  0.22350000  0.90870000  0.08830000  1
  H  H160  1  0.21630000  0.08490000  0.87760000  1
  H  H161  1  0.21630000  0.58490000  0.62240000  1
  H  H162  1  0.21400000  0.40850000  0.89950000  1
  H  H163  1  0.21400000  0.90850000  0.60050000  1
  H  H164  1  0.17810000  0.33790000  0.92630000  1
  H  H165  1  0.17810000  0.83790000  0.57370000  1
  H  H166  1  0.17220000  0.02000000  0.95760000  1
  H  H167  1  0.17220000  0.52000000  0.54240000  1
  H  H168  1  0.16750000  0.85950000  0.89380000  1
  H  H169  1  0.16750000  0.35950000  0.60620000  1
  H  H170  1  0.16720000  0.13950000  0.43880000  1
  H  H171  1  0.16720000  0.63950000  0.06120000  1
  H  H172  1  0.16540000  0.62160000  0.34780000  1
  H  H173  1  0.16540000  0.12160000  0.15220000  1
  H  H174  1  0.16150000  0.18960000  0.85310000  1
  H  H175  1  0.16150000  0.68960000  0.64690000  1
  H  H176  1  0.14790000  0.48020000  0.84740000  1
  H  H177  1  0.14790000  0.98020000  0.65260000  1
  H  H178  1  0.14340000  0.94210000  0.78920000  1
  H  H179  1  0.14340000  0.44210000  0.71080000  1
  H  H180  1  0.13050000  0.09790000  0.38510000  1
  H  H181  1  0.13050000  0.59790000  0.11490000  1
  H  H182  1  0.12080000  0.66380000  0.26140000  1
  H  H183  1  0.12080000  0.16380000  0.23860000  1
  H  H184  1  0.11810000  0.70660000  0.86820000  1
  H  H185  1  0.11810000  0.20660000  0.63180000  1
  H  H186  1  0.11390000  0.91670000  0.28010000  1
  H  H187  1  0.11390000  0.41670000  0.21990000  1
  H  H188  1  0.11220000  0.51970000  0.38840000  1
  H  H189  1  0.11220000  0.01970000  0.11160000  1
  H  H190  1  0.10560000  0.59050000  0.79370000  1
  H  H191  1  0.10560000  0.09050000  0.70630000  1
  H  H192  1  0.10480000  0.22460000  0.48230000  1
  H  H193  1  0.10480000  0.72460000  0.01770000  1
  H  H194  1  0.10010000  0.37410000  0.43910000  1
  H  H195  1  0.10010000  0.87410000  0.06090000  1
  H  H196  1  0.09430000  0.45780000  0.97430000  1
  H  H197  1  0.09430000  0.95780000  0.52570000  1
  H  H198  1  0.08290000  0.09360000  0.77280000  1
  H  H199  1  0.08290000  0.59360000  0.72720000  1
  H  H200  1  0.08260000  0.50740000  0.88680000  1
  H  H201  1  0.08260000  0.00740000  0.61320000  1
  H  H202  1  0.08250000  0.37610000  0.98330000  1
  H  H203  1  0.08250000  0.87610000  0.51670000  1
  H  H204  1  0.07440000  0.55460000  0.48500000  1
  H  H205  1  0.07440000  0.05460000  0.01500000  1
  H  H206  1  0.04740000  0.74500000  0.79030000  1
  H  H207  1  0.04740000  0.24500000  0.70970000  1
  H  H208  1  0.04550000  0.80040000  0.92590000  1
  H  H209  1  0.04550000  0.30040000  0.57410000  1
  H  H210  1  0.04100000  0.68160000  0.98270000  1
  H  H211  1  0.04100000  0.18160000  0.51730000  1
  H  H212  1  0.03550000  0.33250000  0.26310000  1
  H  H213  1  0.03550000  0.83250000  0.23690000  1
  H  H214  1  0.03410000  0.07000000  0.49610000  1
  H  H215  1  0.03410000  0.57000000  0.00390000  1
  H  H216  1  0.02810000  0.04040000  0.43180000  1
  H  H217  1  0.02810000  0.54040000  0.06820000  1
  H  H218  1  0.01880000  0.87700000  0.93310000  1
  H  H219  1  0.01880000  0.37700000  0.56690000  1
  H  H220  1  0.01320000  0.45630000  0.34420000  1
  H  H221  1  0.01320000  0.95630000  0.15580000  1
  C  C222  1  0.99930000  0.25650000  0.46553000  1
  C  C223  1  0.99930000  0.75650000  0.03447000  1
  C  C224  1  0.98810000  0.97820000  0.77260000  1
  C  C225  1  0.98810000  0.47820000  0.72740000  1
  C  C226  1  0.98450000  0.42090000  0.95690000  1
  C  C227  1  0.98450000  0.92090000  0.54310000  1
  C  C228  1  0.96440000  0.00330000  0.82700000  1
  C  C229  1  0.96440000  0.50330000  0.67300000  1
  C  C230  1  0.95840000  0.66130000  0.45350000  1
  C  C231  1  0.95840000  0.16130000  0.04650000  1
  C  C232  1  0.95680000  0.03930000  0.31201000  1
  C  C233  1  0.95680000  0.53930000  0.18799000  1
  C  C234  1  0.95660000  0.41780000  0.75260000  1
  C  C235  1  0.95660000  0.91780000  0.74740000  1
  C  C236  1  0.94620000  0.29750000  0.97950000  1
  C  C237  1  0.94620000  0.79750000  0.52050000  1
  C  C238  1  0.93720000  0.35180000  0.47012000  1
  C  C239  1  0.93720000  0.85180000  0.02988000  1
  C  C240  1  0.93020000  0.08500000  0.45840000  1
  C  C241  1  0.93020000  0.58500000  0.04160000  1
  C  C242  1  0.91260000  0.16480000  0.77120000  1
  C  C243  1  0.91260000  0.66480000  0.72880000  1
  C  C244  1  0.91240000  0.31350000  0.42187000  1
  C  C245  1  0.91240000  0.81350000  0.07813000  1
  C  C246  1  0.90710000  0.41790000  0.48380000  1
  C  C247  1  0.90710000  0.91790000  0.01620000  1
  C  C248  1  0.90670000  0.96490000  0.85280000  1
  C  C249  1  0.90670000  0.46490000  0.64720000  1
  C  C250  1  0.90300000  0.03120000  0.36210000  1
  C  C251  1  0.90300000  0.53120000  0.13790000  1
  C  C252  1  0.89980000  0.74890000  0.29050000  1
  C  C253  1  0.89980000  0.24890000  0.20950000  1
  C  C254  1  0.89960000  0.93690000  0.25790000  1
  C  C255  1  0.89960000  0.43690000  0.24210000  1
  C  C256  1  0.89940000  0.87840000  0.77690000  1
  C  C257  1  0.89940000  0.37840000  0.72310000  1
  C  C258  1  0.88110000  0.21280000  0.81010000  1
  C  C259  1  0.88110000  0.71280000  0.68990000  1
  C  C260  1  0.87940000  0.63690000  0.47381000  1
  C  C261  1  0.87940000  0.13690000  0.02619000  1
  C  C262  1  0.87420000  0.90300000  0.82830000  1
  C  C263  1  0.87420000  0.40300000  0.67170000  1
  C  C264  1  0.87110000  0.35940000  0.90820000  1
  C  C265  1  0.87110000  0.85940000  0.59180000  1
  C  C266  1  0.86590000  0.61500000  0.75410000  1
  C  C267  1  0.86590000  0.11500000  0.74590000  1
  C  C268  1  0.86170000  0.12210000  0.96730000  1
  C  C269  1  0.86170000  0.62210000  0.53270000  1
  C  C270  1  0.86010000  0.21640000  0.25608000  1
  C  C271  1  0.86010000  0.71640000  0.24392000  1
  C  C272  1  0.85710000  0.29620000  0.87020000  1
  C  C273  1  0.85710000  0.79620000  0.62980000  1
  C  C274  1  0.85700000  0.77140000  0.33670000  1
  C  C275  1  0.85700000  0.27140000  0.16330000  1
  C  C276  1  0.85500000  0.33630000  0.38580000  1
  C  C277  1  0.85500000  0.83630000  0.11420000  1
  C  C278  1  0.85020000  0.43820000  0.44900000  1
  C  C279  1  0.85020000  0.93820000  0.05100000  1
  C  C280  1  0.82660000  0.12780000  0.39527000  1
  C  C281  1  0.82660000  0.62780000  0.10473000  1
  C  C282  1  0.82340000  0.46210000  0.25892000  1
  C  C283  1  0.82340000  0.96210000  0.24108000  1
  C  C284  1  0.82310000  0.39890000  0.40020000  1
  C  C285  1  0.82310000  0.89890000  0.09980000  1
  C  C286  1  0.82250000  0.16270000  0.33556000  1
  C  C287  1  0.82250000  0.66270000  0.16444000  1
  C  C288  1  0.82170000  0.63030000  0.43290000  1
  C  C289  1  0.82170000  0.13030000  0.06710000  1
  C  C290  1  0.81440000  0.52670000  0.28490000  1
  C  C291  1  0.81440000  0.02670000  0.21510000  1
  C  C292  1  0.80280000  0.20630000  0.82170000  1
  C  C293  1  0.80280000  0.70630000  0.67830000  1
  C  C294  1  0.78780000  0.10160000  0.95070000  1
  C  C295  1  0.78780000  0.60160000  0.54930000  1
  C  C296  1  0.78770000  0.10990000  0.75800000  1
  C  C297  1  0.78770000  0.60990000  0.74200000  1
  C  C298  1  0.78030000  0.20640000  0.25393000  1
  C  C299  1  0.78030000  0.70640000  0.24607000  1
  C  C300  1  0.77920000  0.76260000  0.33810000  1
  C  C301  1  0.77920000  0.26260000  0.16190000  1
  C  C302  1  0.75800000  0.91960000  0.25050000  1
  C  C303  1  0.75800000  0.41960000  0.24950000  1
  C  C304  1  0.75440000  0.15460000  0.79570000  1
  C  C305  1  0.75440000  0.65460000  0.70430000  1
  C  C306  1  0.74880000  0.60900000  0.44876000  1
  C  C307  1  0.74880000  0.10900000  0.05124000  1
  C  C308  1  0.74580000  0.54570000  0.30437000  1
  C  C309  1  0.74580000  0.04570000  0.19563000  1
  C  C310  1  0.73810000  0.72970000  0.29380000  1
  C  C311  1  0.73810000  0.22970000  0.20620000  1
  C  C312  1  0.73030000  0.09660000  0.99340000  1
  C  C313  1  0.73030000  0.59660000  0.50660000  1
  C  C314  1  0.71510000  0.27970000  0.88260000  1
  C  C315  1  0.71510000  0.77970000  0.61740000  1
  C  C316  1  0.68870000  0.43840000  0.26940000  1
  C  C317  1  0.68870000  0.93840000  0.23060000  1
  C  C318  1  0.68740000  0.33970000  0.78800000  1
  C  C319  1  0.68740000  0.83970000  0.71200000  1
  C  C320  1  0.68320000  0.33680000  0.84470000  1
  C  C321  1  0.68320000  0.83680000  0.65530000  1
  C  C322  1  0.68160000  0.50090000  0.29809000  1
  C  C323  1  0.68160000  0.00090000  0.20191000  1
  C  C324  1  0.68000000  0.14970000  0.32100000  1
  C  C325  1  0.68000000  0.64970000  0.17900000  1
  C  C326  1  0.66240000  0.39530000  0.75480000  1
  C  C327  1  0.66240000  0.89530000  0.74520000  1
  C  C328  1  0.65470000  0.38960000  0.86780000  1
  C  C329  1  0.65470000  0.88960000  0.63220000  1
  C  C330  1  0.65410000  0.27350000  0.35060000  1
  C  C331  1  0.65410000  0.77350000  0.14940000  1
  C  C332  1  0.65020000  0.07610000  0.97520000  1
  C  C333  1  0.65020000  0.57610000  0.52480000  1
  C  C334  1  0.64300000  0.20330000  0.35990000  1
  C  C335  1  0.64300000  0.70330000  0.14010000  1
  C  C336  1  0.62820000  0.44820000  0.77780000  1
  C  C337  1  0.62820000  0.94820000  0.72220000  1
  C  C338  1  0.62630000  0.44830000  0.83490000  1
  C  C339  1  0.62630000  0.94830000  0.66510000  1
  C  C340  1  0.61950000  0.32200000  0.38590000  1
  C  C341  1  0.61950000  0.82200000  0.11410000  1
  C  C342  1  0.60800000  0.51970000  0.32854000  1
  C  C343  1  0.60800000  0.01970000  0.17146000  1
  C  C344  1  0.60180000  0.00660000  0.75950000  1
  C  C345  1  0.60180000  0.50660000  0.74050000  1
  C  C346  1  0.59370000  0.18010000  0.40420000  1
  C  C347  1  0.59370000  0.68010000  0.09580000  1
  C  C348  1  0.57210000  0.29860000  0.43050000  1
  C  C349  1  0.57210000  0.79860000  0.06950000  1
  C  C350  1  0.55930000  0.22950000  0.44040000  1
  C  C351  1  0.55930000  0.72950000  0.05960000  1
  C  C352  1  0.53560000  0.35330000  0.46940000  1
  C  C353  1  0.53560000  0.85330000  0.03060000  1
  C  C354  1  0.46440000  0.14670000  0.96940000  1
  C  C355  1  0.46440000  0.64670000  0.53060000  1
  C  C356  1  0.44070000  0.27050000  0.94040000  1
  C  C357  1  0.44070000  0.77050000  0.55960000  1
  C  C358  1  0.42790000  0.20140000  0.93050000  1
  C  C359  1  0.42790000  0.70140000  0.56950000  1
  C  C360  1  0.40630000  0.31990000  0.90420000  1
  C  C361  1  0.40630000  0.81990000  0.59580000  1
  C  C362  1  0.39820000  0.49340000  0.25950000  1
  C  C363  1  0.39820000  0.99340000  0.24050000  1
  C  C364  1  0.39200000  0.98030000  0.82854000  1
  C  C365  1  0.39200000  0.48030000  0.67146000  1
  C  C366  1  0.38050000  0.17800000  0.88590000  1
  C  C367  1  0.38050000  0.67800000  0.61410000  1
  C  C368  1  0.37370000  0.05170000  0.33490000  1
  C  C369  1  0.37370000  0.55170000  0.16510000  1
  C  C370  1  0.37180000  0.05180000  0.27780000  1
  C  C371  1  0.37180000  0.55180000  0.22220000  1
  C  C372  1  0.35700000  0.29670000  0.85990000  1
  C  C373  1  0.35700000  0.79670000  0.64010000  1
  C  C374  1  0.34980000  0.42390000  0.47520000  1
  C  C375  1  0.34980000  0.92390000  0.02480000  1
  C  C376  1  0.34590000  0.22650000  0.85060000  1
  C  C377  1  0.34590000  0.72650000  0.64940000  1
  C  C378  1  0.34530000  0.11040000  0.36780000  1
  C  C379  1  0.34530000  0.61040000  0.13220000  1
  C  C380  1  0.33760000  0.10470000  0.25480000  1
  C  C381  1  0.33760000  0.60470000  0.24520000  1
  C  C382  1  0.32000000  0.35030000  0.82100000  1
  C  C383  1  0.32000000  0.85030000  0.67900000  1
  C  C384  1  0.31840000  0.99910000  0.79809000  1
  C  C385  1  0.31840000  0.49910000  0.70191000  1
  C  C386  1  0.31680000  0.16320000  0.34470000  1
  C  C387  1  0.31680000  0.66320000  0.15530000  1
  C  C388  1  0.31260000  0.16030000  0.28800000  1
  C  C389  1  0.31260000  0.66030000  0.21200000  1
  C  C390  1  0.31130000  0.06160000  0.76940000  1
  C  C391  1  0.31130000  0.56160000  0.73060000  1
  C  C392  1  0.28490000  0.22030000  0.38260000  1
  C  C393  1  0.28490000  0.72030000  0.11740000  1
  C  C394  1  0.26970000  0.40340000  0.49340000  1
  C  C395  1  0.26970000  0.90340000  0.00660000  1
  C  C396  1  0.26190000  0.77030000  0.79380000  1
  C  C397  1  0.26190000  0.27030000  0.70620000  1
  C  C398  1  0.25420000  0.95430000  0.80437000  1
  C  C399  1  0.25420000  0.45430000  0.69563000  1
  C  C400  1  0.25120000  0.89100000  0.94876000  1
  C  C401  1  0.25120000  0.39100000  0.55124000  1
  C  C402  1  0.24560000  0.34540000  0.29570000  1
  C  C403  1  0.24560000  0.84540000  0.20430000  1
  C  C404  1  0.24200000  0.58040000  0.75050000  1
  C  C405  1  0.24200000  0.08040000  0.74950000  1
  C  C406  1  0.22080000  0.73740000  0.83810000  1
  C  C407  1  0.22080000  0.23740000  0.66190000  1
  C  C408  1  0.21970000  0.29360000  0.75393000  1
  C  C409  1  0.21970000  0.79360000  0.74607000  1
  C  C410  1  0.21230000  0.39010000  0.25800000  1
  C  C411  1  0.21230000  0.89010000  0.24200000  1
  C  C412  1  0.21220000  0.39840000  0.45070000  1
  C  C413  1  0.21220000  0.89840000  0.04930000  1
  C  C414  1  0.19720000  0.29370000  0.32170000  1
  C  C415  1  0.19720000  0.79370000  0.17830000  1
  C  C416  1  0.18560000  0.97330000  0.78490000  1
  C  C417  1  0.18560000  0.47330000  0.71510000  1
  C  C418  1  0.17830000  0.86970000  0.93290000  1
  C  C419  1  0.17830000  0.36970000  0.56710000  1
  C  C420  1  0.17750000  0.33730000  0.83556000  1
  C  C421  1  0.17750000  0.83730000  0.66444000  1
  C  C422  1  0.17690000  0.10110000  0.90020000  1
  C  C423  1  0.17690000  0.60110000  0.59980000  1
  C  C424  1  0.17660000  0.03790000  0.75892000  1
  C  C425  1  0.17660000  0.53790000  0.74108000  1
  C  C426  1  0.17340000  0.37220000  0.89527000  1
  C  C427  1  0.17340000  0.87220000  0.60473000  1
  C  C428  1  0.14980000  0.06180000  0.94900000  1
  C  C429  1  0.14980000  0.56180000  0.55100000  1
  C  C430  1  0.14500000  0.16370000  0.88580000  1
  C  C431  1  0.14500000  0.66370000  0.61420000  1
  C  C432  1  0.14300000  0.72860000  0.83670000  1
  C  C433  1  0.14300000  0.22860000  0.66330000  1
  C  C434  1  0.14290000  0.20380000  0.37020000  1
  C  C435  1  0.14290000  0.70380000  0.12980000  1
  C  C436  1  0.13990000  0.28360000  0.75608000  1
  C  C437  1  0.13990000  0.78360000  0.74392000  1
  C  C438  1  0.13830000  0.37790000  0.46730000  1
  C  C439  1  0.13830000  0.87790000  0.03270000  1
  C  C440  1  0.13410000  0.88500000  0.25410000  1
  C  C441  1  0.13410000  0.38500000  0.24590000  1
  C  C442  1  0.12890000  0.14060000  0.40820000  1
  C  C443  1  0.12890000  0.64060000  0.09180000  1
  C  C444  1  0.12580000  0.59700000  0.32830000  1
  C  C445  1  0.12580000  0.09700000  0.17170000  1
  C  C446  1  0.12060000  0.86310000  0.97381000  1
  C  C447  1  0.12060000  0.36310000  0.52619000  1
  C  C448  1  0.11890000  0.28720000  0.31010000  1
  C  C449  1  0.11890000  0.78720000  0.18990000  1
  C  C450  1  0.10060000  0.62160000  0.27690000  1
  C  C451  1  0.10060000  0.12160000  0.22310000  1
  C  C452  1  0.10040000  0.56310000  0.75790000  1
  C  C453  1  0.10040000  0.06310000  0.74210000  1
  C  C454  1  0.10020000  0.75110000  0.79050000  1
  C  C455  1  0.10020000  0.25110000  0.70950000  1
  C  C456  1  0.09700000  0.46880000  0.86210000  1
  C  C457  1  0.09700000  0.96880000  0.63790000  1
  C  C458  1  0.09330000  0.53510000  0.35280000  1
  C  C459  1  0.09330000  0.03510000  0.14720000  1
  C  C460  1  0.09290000  0.08210000  0.98380000  1
  C  C461  1  0.09290000  0.58210000  0.51620000  1
  C  C462  1  0.08760000  0.18650000  0.92187000  1
  C  C463  1  0.08760000  0.68650000  0.57813000  1
  C  C464  1  0.08740000  0.33520000  0.27120000  1
  C  C465  1  0.08740000  0.83520000  0.22880000  1
  C  C466  1  0.06980000  0.41500000  0.95840000  1
  C  C467  1  0.06980000  0.91500000  0.54160000  1
  C  C468  1  0.06280000  0.14820000  0.97012000  1
  C  C469  1  0.06280000  0.64820000  0.52988000  1
  C  C470  1  0.05380000  0.20250000  0.47950000  1
  C  C471  1  0.05380000  0.70250000  0.02050000  1
  C  C472  1  0.04340000  0.08220000  0.25260000  1
  C  C473  1  0.04340000  0.58220000  0.24740000  1
  C  C474  1  0.04320000  0.46070000  0.81201000  1
  C  C475  1  0.04320000  0.96070000  0.68799000  1
  C  C476  1  0.04160000  0.83870000  0.95350000  1
  C  C477  1  0.04160000  0.33870000  0.54650000  1
  C  C478  1  0.03560000  0.49670000  0.32700000  1
  C  C479  1  0.03560000  0.99670000  0.17300000  1
  C  C480  1  0.01550000  0.07910000  0.45690000  1
  C  C481  1  0.01550000  0.57910000  0.04310000  1
  C  C482  1  0.01190000  0.52180000  0.27260000  1
  C  C483  1  0.01190000  0.02180000  0.22740000  1
  C  C484  1  0.00070000  0.24350000  0.96553000  1
  C  C485  1  0.00070000  0.74350000  0.53447000  1
  N  N486  1  0.99260000  0.40760000  0.80660000  1
  N  N487  1  0.99260000  0.90760000  0.69340000  1
  N  N488  1  0.99170000  0.31527000  0.49784000  1
  N  N489  1  0.99170000  0.81527000  0.00216000  1
  N  N490  1  0.95630000  0.99454000  0.26698000  1
  N  N491  1  0.95630000  0.49454000  0.23302000  1
  N  N492  1  0.95300000  0.25259000  0.41986000  1
  N  N493  1  0.95300000  0.75259000  0.08014000  1
  N  N494  1  0.94740000  0.35330000  0.93400000  1
  N  N495  1  0.94740000  0.85330000  0.56600000  1
  N  N496  1  0.91390000  0.26900000  0.84123000  1
  N  N497  1  0.91390000  0.76900000  0.65877000  1
  N  N498  1  0.90280000  0.09654000  0.39780000  1
  N  N499  1  0.90280000  0.59654000  0.10220000  1
  N  N500  1  0.88450000  0.18870000  0.30910000  1
  N  N501  1  0.88450000  0.68870000  0.19090000  1
  N  N502  1  0.78920000  0.26000000  0.86110000  1
  N  N503  1  0.78920000  0.76000000  0.63890000  1
  N  N504  1  0.75800000  0.17088000  0.30462000  1
  N  N505  1  0.75800000  0.67088000  0.19538000  1
  N  N506  1  0.24200000  0.32912000  0.80462000  1
  N  N507  1  0.24200000  0.82912000  0.69538000  1
  N  N508  1  0.21080000  0.24000000  0.36110000  1
  N  N509  1  0.21080000  0.74000000  0.13890000  1
  N  N510  1  0.11550000  0.31130000  0.80910000  1
  N  N511  1  0.11550000  0.81130000  0.69090000  1
  N  N512  1  0.09720000  0.40346000  0.89780000  1
  N  N513  1  0.09720000  0.90346000  0.60220000  1
  N  N514  1  0.08610000  0.23100000  0.34123000  1
  N  N515  1  0.08610000  0.73100000  0.15877000  1
  N  N516  1  0.05260000  0.14670000  0.43400000  1
  N  N517  1  0.05260000  0.64670000  0.06600000  1
  N  N518  1  0.04700000  0.24741000  0.91986000  1
  N  N519  1  0.04700000  0.74741000  0.58014000  1
  N  N520  1  0.04370000  0.50546000  0.76698000  1
  N  N521  1  0.04370000  0.00546000  0.73302000  1
  N  N522  1  0.00830000  0.18473000  0.99784000  1
  N  N523  1  0.00830000  0.68473000  0.50216000  1
  N  N524  1  0.00740000  0.09240000  0.30660000  1
  N  N525  1  0.00740000  0.59240000  0.19340000  1
  O  O526  1  0.63500000  0.07990000  0.92106000  1
  O  O527  1  0.63500000  0.57990000  0.57894000  1
  O  O528  1  0.60430000  0.57855000  0.35070000  1
  O  O529  1  0.60430000  0.07855000  0.14930000  1
  O  O530  1  0.60217000  0.55728000  0.48432000  1
  O  O531  1  0.60217000  0.05728000  0.01568000  1
  O  O532  1  0.59980000  0.99730000  0.81320000  1
  O  O533  1  0.59980000  0.49730000  0.68680000  1
  O  O534  1  0.58450000  0.56130000  0.76490000  1
  O  O535  1  0.58450000  0.06130000  0.73510000  1
  O  O536  1  0.55630000  0.46948000  0.32982000  1
  O  O537  1  0.55630000  0.96948000  0.17018000  1
  O  O538  1  0.53040000  0.96060000  0.92195000  1
  O  O539  1  0.53040000  0.46060000  0.57805000  1
  O  O540  1  0.53001000  0.41364000  0.45006000  1
  O  O541  1  0.53001000  0.91364000  0.04994000  1
  O  O542  1  0.51210000  0.83069000  0.98128000  1
  O  O543  1  0.51210000  0.33069000  0.51872000  1
  O  O544  1  0.48790000  0.66931000  0.48128000  1
  O  O545  1  0.48790000  0.16931000  0.01872000  1
  O  O546  1  0.46999000  0.08636000  0.95006000  1
  O  O547  1  0.46999000  0.58636000  0.54994000  1
  O  O548  1  0.46960000  0.53940000  0.42195000  1
  O  O549  1  0.46960000  0.03940000  0.07805000  1
  O  O550  1  0.44370000  0.03052000  0.82982000  1
  O  O551  1  0.44370000  0.53052000  0.67018000  1
  O  O552  1  0.41550000  0.93870000  0.26490000  1
  O  O553  1  0.41550000  0.43870000  0.23510000  1
  O  O554  1  0.40020000  0.50270000  0.31320000  1
  O  O555  1  0.40020000  0.00270000  0.18680000  1
  O  O556  1  0.39783000  0.94272000  0.98432000  1
  O  O557  1  0.39783000  0.44272000  0.51568000  1
  O  O558  1  0.39570000  0.92145000  0.85070000  1
  O  O559  1  0.39570000  0.42145000  0.64930000  1
  O  O560  1  0.36500000  0.42010000  0.42106000  1
  O  O561  1  0.36500000  0.92010000  0.07894000  1
