# generated using pymatgen
data_Zn2H20C31N4O9
_symmetry_space_group_name_H-M   'P 1'
_cell_length_a   4.78900000
_cell_length_b   11.77100000
_cell_length_c   26.32900000
_cell_angle_alpha   96.82200000
_cell_angle_beta   90.00000000
_cell_angle_gamma   90.00000000
_symmetry_Int_Tables_number   1
_chemical_formula_structural   Zn2H20C31N4O9
_chemical_formula_sum   'Zn4 H40 C62 N8 O18'
_cell_volume   1473.69227574
_cell_formula_units_Z   2
loop_
 _symmetry_equiv_pos_site_id
 _symmetry_equiv_pos_as_xyz
  1  'x, y, z'
loop_
 _atom_site_type_symbol
 _atom_site_label
 _atom_site_symmetry_multiplicity
 _atom_site_fract_x
 _atom_site_fract_y
 _atom_site_fract_z
 _atom_site_occupancy
  Zn  Zn0  1  0.27738000  0.82415000  0.97052000  1
  Zn  Zn1  1  0.29553000  0.09541000  0.55064000  1
  Zn  Zn2  1  0.77738000  0.17585000  0.02948000  1
  Zn  Zn3  1  0.79553000  0.90459000  0.44936000  1
  H  H4  1  0.03830000  0.41790000  0.17230000  1
  H  H5  1  0.08730000  0.60950000  0.89700000  1
  H  H6  1  0.09070000  0.75790000  0.19880000  1
  H  H7  1  0.12040000  0.52340000  0.69400000  1
  H  H8  1  0.13040000  0.16620000  0.83630000  1
  H  H9  1  0.14410000  0.40160000  0.85370000  1
  H  H10  1  0.19020000  0.37970000  0.00160000  1
  H  H11  1  0.21330000  0.56680000  0.05280000  1
  H  H12  1  0.26420000  0.55030000  0.38620000  1
  H  H13  1  0.27120000  0.04190000  0.76790000  1
  H  H14  1  0.28980000  0.74330000  0.57950000  1
  H  H15  1  0.30190000  0.42680000  0.71360000  1
  H  H16  1  0.31860000  0.70980000  0.45350000  1
  H  H17  1  0.33190000  0.23950000  0.65670000  1
  H  H18  1  0.34060000  0.40220000  0.23950000  1
  H  H19  1  0.36110000  0.04230000  0.28340000  1
  H  H20  1  0.36290000  0.32470000  0.87790000  1
  H  H21  1  0.38820000  0.74200000  0.26570000  1
  H  H22  1  0.40020000  0.71290000  0.66250000  1
  H  H23  1  0.46540000  0.21820000  0.16370000  1
  H  H24  1  0.53830000  0.58210000  0.82770000  1
  H  H25  1  0.58730000  0.39050000  0.10300000  1
  H  H26  1  0.59070000  0.24210000  0.80120000  1
  H  H27  1  0.62040000  0.47660000  0.30600000  1
  H  H28  1  0.63040000  0.83380000  0.16370000  1
  H  H29  1  0.64410000  0.59840000  0.14630000  1
  H  H30  1  0.69020000  0.62030000  0.99840000  1
  H  H31  1  0.71330000  0.43320000  0.94720000  1
  H  H32  1  0.76420000  0.44970000  0.61380000  1
  H  H33  1  0.77120000  0.95810000  0.23210000  1
  H  H34  1  0.78980000  0.25670000  0.42050000  1
  H  H35  1  0.80190000  0.57320000  0.28640000  1
  H  H36  1  0.81860000  0.29020000  0.54650000  1
  H  H37  1  0.83190000  0.76050000  0.34330000  1
  H  H38  1  0.84060000  0.59780000  0.76050000  1
  H  H39  1  0.86110000  0.95770000  0.71660000  1
  H  H40  1  0.86290000  0.67530000  0.12210000  1
  H  H41  1  0.88820000  0.25800000  0.73430000  1
  H  H42  1  0.90020000  0.28710000  0.33750000  1
  H  H43  1  0.96540000  0.78180000  0.83630000  1
  C  C44  1  0.00590000  0.86890000  0.59808000  1
  C  C45  1  0.03370000  0.58940000  0.17805000  1
  C  C46  1  0.07180000  0.40530000  0.02852000  1
  C  C47  1  0.08590000  0.50880000  0.05664000  1
  C  C48  1  0.09680000  0.08840000  0.83642000  1
  C  C49  1  0.10980000  0.48370000  0.19081000  1
  C  C50  1  0.11910000  0.44410000  0.70059000  1
  C  C51  1  0.12980000  0.89800000  0.79473000  1
  C  C52  1  0.14100000  0.68570000  0.20667000  1
  C  C53  1  0.14540000  0.83470000  0.69801000  1
  C  C54  1  0.15730000  0.97900000  0.36766000  1
  C  C55  1  0.18090000  0.01460000  0.79524000  1
  C  C56  1  0.19830000  0.27230000  0.63738000  1
  C  C57  1  0.20320000  0.78650000  0.60695000  1
  C  C58  1  0.21450000  0.81160000  0.75106000  1
  C  C59  1  0.24000000  0.58980000  0.91589000  1
  C  C60  1  0.25470000  0.11390000  0.08033000  1
  C  C61  1  0.27080000  0.76890000  0.65668000  1
  C  C62  1  0.29270000  0.47430000  0.23115000  1
  C  C63  1  0.32100000  0.67610000  0.24663000  1
  C  C64  1  0.33480000  0.39860000  0.86582000  1
  C  C65  1  0.37440000  0.06630000  0.36086000  1
  C  C66  1  0.38650000  0.61150000  0.38580000  1
  C  C67  1  0.38690000  0.86360000  0.07667000  1
  C  C68  1  0.40400000  0.57030000  0.25899000  1
  C  C69  1  0.41010000  0.06570000  0.12245000  1
  C  C70  1  0.41650000  0.70020000  0.42280000  1
  C  C71  1  0.44500000  0.11630000  0.45674000  1
  C  C72  1  0.44770000  0.08500000  0.31101000  1
  C  C73  1  0.46400000  0.94800000  0.12182000  1
  C  C74  1  0.49680000  0.14020000  0.16372000  1
  C  C75  1  0.50590000  0.13110000  0.40192000  1
  C  C76  1  0.53370000  0.41060000  0.82195000  1
  C  C77  1  0.57180000  0.59470000  0.97148000  1
  C  C78  1  0.58590000  0.49120000  0.94336000  1
  C  C79  1  0.59680000  0.91160000  0.16358000  1
  C  C80  1  0.60980000  0.51630000  0.80919000  1
  C  C81  1  0.61910000  0.55590000  0.29941000  1
  C  C82  1  0.62980000  0.10200000  0.20527000  1
  C  C83  1  0.64100000  0.31430000  0.79333000  1
  C  C84  1  0.64540000  0.16530000  0.30199000  1
  C  C85  1  0.65730000  0.02100000  0.63234000  1
  C  C86  1  0.68090000  0.98540000  0.20476000  1
  C  C87  1  0.69830000  0.72770000  0.36262000  1
  C  C88  1  0.70320000  0.21350000  0.39305000  1
  C  C89  1  0.71450000  0.18840000  0.24894000  1
  C  C90  1  0.74000000  0.41020000  0.08411000  1
  C  C91  1  0.75470000  0.88610000  0.91967000  1
  C  C92  1  0.77080000  0.23110000  0.34332000  1
  C  C93  1  0.79270000  0.52570000  0.76885000  1
  C  C94  1  0.82100000  0.32390000  0.75337000  1
  C  C95  1  0.83480000  0.60140000  0.13418000  1
  C  C96  1  0.87440000  0.93370000  0.63914000  1
  C  C97  1  0.88650000  0.38850000  0.61420000  1
  C  C98  1  0.88690000  0.13640000  0.92333000  1
  C  C99  1  0.90400000  0.42970000  0.74101000  1
  C  C100  1  0.91010000  0.93430000  0.87755000  1
  C  C101  1  0.91650000  0.29980000  0.57720000  1
  C  C102  1  0.94500000  0.88370000  0.54326000  1
  C  C103  1  0.94770000  0.91500000  0.68899000  1
  C  C104  1  0.96400000  0.05200000  0.87818000  1
  C  C105  1  0.99680000  0.85980000  0.83628000  1
  N  N106  1  0.07080000  0.37130000  0.65241000  1
  N  N107  1  0.11300000  0.22610000  0.59188000  1
  N  N108  1  0.35420000  0.65640000  0.95407000  1
  N  N109  1  0.37670000  0.48860000  0.90814000  1
  N  N110  1  0.57080000  0.62870000  0.34759000  1
  N  N111  1  0.61300000  0.77390000  0.40812000  1
  N  N112  1  0.85420000  0.34360000  0.04593000  1
  N  N113  1  0.87670000  0.51140000  0.09186000  1
  O  O114  1  0.05670000  0.96460000  0.52362000  1
  O  O115  1  0.06400000  0.91750000  0.33056000  1
  O  O116  1  0.08460000  0.97480000  0.41411000  1
  O  O117  1  0.30490000  0.18690000  0.48452000  1
  O  O118  1  0.33000000  0.72330000  0.75849000  1
  O  O119  1  0.33880000  0.90840000  0.03598000  1
  O  O120  1  0.38070000  0.17000000  0.04997000  1
  O  O121  1  0.38160000  0.76140000  0.08066000  1
  O  O122  1  0.49190000  0.89600000  0.91906000  1
  O  O123  1  0.55670000  0.03540000  0.47638000  1
  O  O124  1  0.56400000  0.08250000  0.66944000  1
  O  O125  1  0.58460000  0.02520000  0.58589000  1
  O  O126  1  0.80490000  0.81310000  0.51548000  1
  O  O127  1  0.83000000  0.27670000  0.24151000  1
  O  O128  1  0.83880000  0.09160000  0.96402000  1
  O  O129  1  0.88070000  0.83000000  0.95003000  1
  O  O130  1  0.88160000  0.23860000  0.91934000  1
  O  O131  1  0.99190000  0.10400000  0.08094000  1
