# generated using pymatgen
data_AgH16(C3N)4
_symmetry_space_group_name_H-M   'P 1'
_cell_length_a   7.58170000
_cell_length_b   10.47870000
_cell_length_c   21.66300000
_cell_angle_alpha   90.00000000
_cell_angle_beta   90.00000000
_cell_angle_gamma   90.00000000
_symmetry_Int_Tables_number   1
_chemical_formula_structural   AgH16(C3N)4
_chemical_formula_sum   'Ag4 H64 C48 N16'
_cell_volume   1721.04649213
_cell_formula_units_Z   4
loop_
 _symmetry_equiv_pos_site_id
 _symmetry_equiv_pos_as_xyz
  1  'x, y, z'
loop_
 _atom_site_type_symbol
 _atom_site_label
 _atom_site_symmetry_multiplicity
 _atom_site_fract_x
 _atom_site_fract_y
 _atom_site_fract_z
 _atom_site_occupancy
  Ag  Ag0  1  0.22680000  0.72955000  0.86900000  1
  Ag  Ag1  1  0.27320000  0.27045000  0.36900000  1
  Ag  Ag2  1  0.72680000  0.77045000  0.13100000  1
  Ag  Ag3  1  0.77320000  0.22955000  0.63100000  1
  H  H4  1  0.00460000  0.46820000  0.91300000  1
  H  H5  1  0.01680000  0.04100000  0.40400000  1
  H  H6  1  0.02690000  0.80040000  0.25120000  1
  H  H7  1  0.07300000  0.47510000  0.45840000  1
  H  H8  1  0.08260000  0.25300000  0.69640000  1
  H  H9  1  0.08380000  0.41470000  0.01520000  1
  H  H10  1  0.08940000  0.16180000  0.04570000  1
  H  H11  1  0.10410000  0.67420000  0.21950000  1
  H  H12  1  0.10430000  0.33500000  0.64130000  1
  H  H13  1  0.11720000  0.27020000  0.14090000  1
  H  H14  1  0.16760000  0.09140000  0.28370000  1
  H  H15  1  0.18350000  0.79970000  0.12680000  1
  H  H16  1  0.19640000  0.50460000  0.28260000  1
  H  H17  1  0.20220000  0.08530000  0.65460000  1
  H  H18  1  0.23080000  0.73440000  0.01920000  1
  H  H19  1  0.24380000  0.19690000  0.24740000  1
  H  H20  1  0.25620000  0.80310000  0.74740000  1
  H  H21  1  0.26920000  0.26560000  0.51920000  1
  H  H22  1  0.29780000  0.91470000  0.15460000  1
  H  H23  1  0.30360000  0.49540000  0.78260000  1
  H  H24  1  0.31650000  0.20030000  0.62680000  1
  H  H25  1  0.33240000  0.90860000  0.78370000  1
  H  H26  1  0.38280000  0.72980000  0.64090000  1
  H  H27  1  0.39570000  0.66500000  0.14130000  1
  H  H28  1  0.39590000  0.32580000  0.71950000  1
  H  H29  1  0.41060000  0.83820000  0.54570000  1
  H  H30  1  0.41620000  0.58530000  0.51520000  1
  H  H31  1  0.41740000  0.74700000  0.19640000  1
  H  H32  1  0.42700000  0.52490000  0.95840000  1
  H  H33  1  0.47310000  0.19960000  0.75120000  1
  H  H34  1  0.48320000  0.95900000  0.90400000  1
  H  H35  1  0.49540000  0.53180000  0.41300000  1
  H  H36  1  0.50460000  0.03180000  0.08700000  1
  H  H37  1  0.51680000  0.45900000  0.59600000  1
  H  H38  1  0.52690000  0.69960000  0.74880000  1
  H  H39  1  0.57300000  0.02490000  0.54160000  1
  H  H40  1  0.58260000  0.24700000  0.30360000  1
  H  H41  1  0.58380000  0.08530000  0.98480000  1
  H  H42  1  0.58940000  0.33820000  0.95430000  1
  H  H43  1  0.60410000  0.82580000  0.78050000  1
  H  H44  1  0.60430000  0.16500000  0.35870000  1
  H  H45  1  0.61720000  0.22980000  0.85910000  1
  H  H46  1  0.66760000  0.40860000  0.71630000  1
  H  H47  1  0.68350000  0.70030000  0.87320000  1
  H  H48  1  0.69640000  0.99540000  0.71740000  1
  H  H49  1  0.70220000  0.41470000  0.34540000  1
  H  H50  1  0.73080000  0.76560000  0.98080000  1
  H  H51  1  0.74380000  0.30310000  0.75260000  1
  H  H52  1  0.75620000  0.69690000  0.25260000  1
  H  H53  1  0.76920000  0.23440000  0.48080000  1
  H  H54  1  0.79780000  0.58530000  0.84540000  1
  H  H55  1  0.80360000  0.00460000  0.21740000  1
  H  H56  1  0.81650000  0.29970000  0.37320000  1
  H  H57  1  0.83240000  0.59140000  0.21630000  1
  H  H58  1  0.88280000  0.77020000  0.35910000  1
  H  H59  1  0.89570000  0.83500000  0.85870000  1
  H  H60  1  0.89590000  0.17420000  0.28050000  1
  H  H61  1  0.91060000  0.66180000  0.45430000  1
  H  H62  1  0.91620000  0.91470000  0.48480000  1
  H  H63  1  0.91740000  0.75300000  0.80360000  1
  H  H64  1  0.92700000  0.97510000  0.04160000  1
  H  H65  1  0.97310000  0.30040000  0.24880000  1
  H  H66  1  0.98320000  0.54100000  0.09600000  1
  H  H67  1  0.99540000  0.96820000  0.58700000  1
  C  C68  1  0.01120000  0.48660000  0.00709000  1
  C  C69  1  0.01220000  0.70680000  0.24789000  1
  C  C70  1  0.03300000  0.13010000  0.08177000  1
  C  C71  1  0.03610000  0.01800000  0.55324000  1
  C  C72  1  0.03750000  0.64690000  0.31099000  1
  C  C73  1  0.04850000  0.19460000  0.13798000  1
  C  C74  1  0.05000000  0.06240000  0.44504000  1
  C  C75  1  0.06550000  0.51970000  0.42036000  1
  C  C76  1  0.13610000  0.53670000  0.31773000  1
  C  C77  1  0.14320000  0.12310000  0.56323000  1
  C  C78  1  0.19700000  0.19290000  0.51245000  1
  C  C79  1  0.19730000  0.16190000  0.62790000  1
  C  C80  1  0.30270000  0.83810000  0.12790000  1
  C  C81  1  0.30300000  0.80710000  0.01245000  1
  C  C82  1  0.35680000  0.87690000  0.06323000  1
  C  C83  1  0.36390000  0.46330000  0.81773000  1
  C  C84  1  0.43450000  0.48030000  0.92036000  1
  C  C85  1  0.45000000  0.93760000  0.94504000  1
  C  C86  1  0.45150000  0.80540000  0.63798000  1
  C  C87  1  0.46250000  0.35310000  0.81099000  1
  C  C88  1  0.46390000  0.98200000  0.05324000  1
  C  C89  1  0.46700000  0.86990000  0.58177000  1
  C  C90  1  0.48780000  0.29320000  0.74789000  1
  C  C91  1  0.48880000  0.51340000  0.50709000  1
  C  C92  1  0.51120000  0.01340000  0.99291000  1
  C  C93  1  0.51220000  0.79320000  0.75211000  1
  C  C94  1  0.53300000  0.36990000  0.91823000  1
  C  C95  1  0.53610000  0.48200000  0.44676000  1
  C  C96  1  0.53750000  0.85310000  0.68901000  1
  C  C97  1  0.54850000  0.30540000  0.86202000  1
  C  C98  1  0.55000000  0.43760000  0.55496000  1
  C  C99  1  0.56550000  0.98030000  0.57964000  1
  C  C100  1  0.63610000  0.96330000  0.68227000  1
  C  C101  1  0.64320000  0.37690000  0.43677000  1
  C  C102  1  0.69700000  0.30710000  0.48755000  1
  C  C103  1  0.69730000  0.33810000  0.37210000  1
  C  C104  1  0.80270000  0.66190000  0.87210000  1
  C  C105  1  0.80300000  0.69290000  0.98755000  1
  C  C106  1  0.85680000  0.62310000  0.93677000  1
  C  C107  1  0.86390000  0.03670000  0.18227000  1
  C  C108  1  0.93450000  0.01970000  0.07964000  1
  C  C109  1  0.95000000  0.56240000  0.05496000  1
  C  C110  1  0.95150000  0.69460000  0.36202000  1
  C  C111  1  0.96250000  0.14690000  0.18901000  1
  C  C112  1  0.96390000  0.51800000  0.94676000  1
  C  C113  1  0.96700000  0.63010000  0.41823000  1
  C  C114  1  0.98780000  0.20680000  0.25211000  1
  C  C115  1  0.98880000  0.98660000  0.49291000  1
  N  N116  1  0.07090000  0.25491000  0.65418000  1
  N  N117  1  0.15140000  0.47209000  0.37151000  1
  N  N118  1  0.15290000  0.16354000  0.45369000  1
  N  N119  1  0.16340000  0.17830000  0.27796000  1
  N  N120  1  0.33660000  0.82170000  0.77796000  1
  N  N121  1  0.34710000  0.83646000  0.95369000  1
  N  N122  1  0.34860000  0.52791000  0.87151000  1
  N  N123  1  0.42910000  0.74509000  0.15418000  1
  N  N124  1  0.57090000  0.24509000  0.34582000  1
  N  N125  1  0.65140000  0.02791000  0.62849000  1
  N  N126  1  0.65290000  0.33646000  0.54631000  1
  N  N127  1  0.66340000  0.32170000  0.72204000  1
  N  N128  1  0.83660000  0.67830000  0.22204000  1
  N  N129  1  0.84710000  0.66354000  0.04631000  1
  N  N130  1  0.84860000  0.97209000  0.12849000  1
  N  N131  1  0.92910000  0.75491000  0.84582000  1
