# generated using pymatgen
data_Mg2H9(C3O)8
_symmetry_space_group_name_H-M   'P 1'
_cell_length_a   11.06400000
_cell_length_b   15.95700000
_cell_length_c   23.36200000
_cell_angle_alpha   90.00000000
_cell_angle_beta   92.26500000
_cell_angle_gamma   90.00000000
_symmetry_Int_Tables_number   1
_chemical_formula_structural   Mg2H9(C3O)8
_chemical_formula_sum   'Mg8 H36 C96 O32'
_cell_volume   4121.29778034
_cell_formula_units_Z   4
loop_
 _symmetry_equiv_pos_site_id
 _symmetry_equiv_pos_as_xyz
  1  'x, y, z'
loop_
 _atom_site_type_symbol
 _atom_site_label
 _atom_site_symmetry_multiplicity
 _atom_site_fract_x
 _atom_site_fract_y
 _atom_site_fract_z
 _atom_site_occupancy
  Mg  Mg0  1  0.35870000  0.65324000  0.75929000  1
  Mg  Mg1  1  0.35870000  0.84676000  0.25929000  1
  Mg  Mg2  1  0.44725000  0.01090000  0.66054000  1
  Mg  Mg3  1  0.44725000  0.48910000  0.16054000  1
  Mg  Mg4  1  0.55275000  0.51090000  0.83946000  1
  Mg  Mg5  1  0.55275000  0.98910000  0.33946000  1
  Mg  Mg6  1  0.64130000  0.15324000  0.74071000  1
  Mg  Mg7  1  0.64130000  0.34676000  0.24071000  1
  H  H8  1  0.01590000  0.23910000  0.09560000  1
  H  H9  1  0.01590000  0.26090000  0.59560000  1
  H  H10  1  0.16470000  0.74930000  0.06220000  1
  H  H11  1  0.16470000  0.75070000  0.56220000  1
  H  H12  1  0.19280000  0.73110000  0.89250000  1
  H  H13  1  0.19280000  0.76890000  0.39250000  1
  H  H14  1  0.20410000  0.03450000  0.17080000  1
  H  H15  1  0.20410000  0.46550000  0.67080000  1
  H  H16  1  0.21860000  0.23130000  0.61060000  1
  H  H17  1  0.21860000  0.26870000  0.11060000  1
  H  H18  1  0.25560000  0.61660000  0.53520000  1
  H  H19  1  0.25560000  0.88340000  0.03520000  1
  H  H20  1  0.26490000  0.00520000  0.08320000  1
  H  H21  1  0.26490000  0.49480000  0.58320000  1
  H  H22  1  0.38140000  0.57580000  0.99660000  1
  H  H23  1  0.38140000  0.92420000  0.49660000  1
  H  H24  1  0.42360000  0.20400000  0.24890000  1
  H  H25  1  0.42360000  0.29600000  0.74890000  1
  H  H26  1  0.57640000  0.70400000  0.25110000  1
  H  H27  1  0.57640000  0.79600000  0.75110000  1
  H  H28  1  0.61860000  0.07580000  0.50340000  1
  H  H29  1  0.61860000  0.42420000  0.00340000  1
  H  H30  1  0.73510000  0.50520000  0.41680000  1
  H  H31  1  0.73510000  0.99480000  0.91680000  1
  H  H32  1  0.74440000  0.11660000  0.96480000  1
  H  H33  1  0.74440000  0.38340000  0.46480000  1
  H  H34  1  0.78140000  0.73130000  0.88940000  1
  H  H35  1  0.78140000  0.76870000  0.38940000  1
  H  H36  1  0.79590000  0.53450000  0.32920000  1
  H  H37  1  0.79590000  0.96550000  0.82920000  1
  H  H38  1  0.80720000  0.23110000  0.60750000  1
  H  H39  1  0.80720000  0.26890000  0.10750000  1
  H  H40  1  0.83530000  0.24930000  0.43780000  1
  H  H41  1  0.83530000  0.25070000  0.93780000  1
  H  H42  1  0.98410000  0.73910000  0.40440000  1
  H  H43  1  0.98410000  0.76090000  0.90440000  1
  C  C44  1  0.00300000  0.03880000  0.01520000  1
  C  C45  1  0.00300000  0.46120000  0.51520000  1
  C  C46  1  0.01300000  0.18900000  0.07530000  1
  C  C47  1  0.01300000  0.31100000  0.57530000  1
  C  C48  1  0.07940000  0.67740000  0.46520000  1
  C  C49  1  0.07940000  0.82260000  0.96520000  1
  C  C50  1  0.08870000  0.60060000  0.49420000  1
  C  C51  1  0.08870000  0.89940000  0.99420000  1
  C  C52  1  0.10140000  0.05410000  0.05550000  1
  C  C53  1  0.10140000  0.44590000  0.55550000  1
  C  C54  1  0.10250000  0.12900000  0.08750000  1
  C  C55  1  0.10250000  0.37100000  0.58750000  1
  C  C56  1  0.16550000  0.74680000  0.47560000  1
  C  C57  1  0.16550000  0.75320000  0.97560000  1
  C  C58  1  0.19150000  0.57910000  0.53110000  1
  C  C59  1  0.19150000  0.92090000  0.03110000  1
  C  C60  1  0.19560000  0.14840000  0.13310000  1
  C  C61  1  0.19560000  0.35160000  0.63310000  1
  C  C62  1  0.19690000  0.50640000  0.55980000  1
  C  C63  1  0.19690000  0.99360000  0.05980000  1
  C  C64  1  0.19760000  0.72400000  0.03040000  1
  C  C65  1  0.19760000  0.77600000  0.53040000  1
  C  C66  1  0.21440000  0.71320000  0.92940000  1
  C  C67  1  0.21440000  0.78680000  0.42940000  1
  C  C68  1  0.23560000  0.08850000  0.17280000  1
  C  C69  1  0.23560000  0.41150000  0.67280000  1
  C  C70  1  0.24390000  0.22840000  0.13710000  1
  C  C71  1  0.24390000  0.27160000  0.63710000  1
  C  C72  1  0.27790000  0.65800000  0.03830000  1
  C  C73  1  0.27790000  0.84200000  0.53830000  1
  C  C74  1  0.29470000  0.64720000  0.93660000  1
  C  C75  1  0.29470000  0.85280000  0.43660000  1
  C  C76  1  0.31350000  0.62740000  0.09780000  1
  C  C77  1  0.31350000  0.87260000  0.59780000  1
  C  C78  1  0.32250000  0.10870000  0.21560000  1
  C  C79  1  0.32250000  0.39130000  0.71560000  1
  C  C80  1  0.32700000  0.61970000  0.99140000  1
  C  C81  1  0.32700000  0.88030000  0.49140000  1
  C  C82  1  0.32830000  0.24960000  0.17940000  1
  C  C83  1  0.32830000  0.25040000  0.67940000  1
  C  C84  1  0.34920000  0.60840000  0.88530000  1
  C  C85  1  0.34920000  0.89160000  0.38530000  1
  C  C86  1  0.36780000  0.18970000  0.21970000  1
  C  C87  1  0.36780000  0.31030000  0.71970000  1
  C  C88  1  0.37340000  0.04050000  0.25410000  1
  C  C89  1  0.37340000  0.45950000  0.75410000  1
  C  C90  1  0.37840000  0.16290000  0.67930000  1
  C  C91  1  0.37840000  0.33710000  0.17930000  1
  C  C92  1  0.62160000  0.66290000  0.82070000  1
  C  C93  1  0.62160000  0.83710000  0.32070000  1
  C  C94  1  0.62660000  0.54050000  0.24590000  1
  C  C95  1  0.62660000  0.95950000  0.74590000  1
  C  C96  1  0.63220000  0.68970000  0.28030000  1
  C  C97  1  0.63220000  0.81030000  0.78030000  1
  C  C98  1  0.65080000  0.10840000  0.61470000  1
  C  C99  1  0.65080000  0.39160000  0.11470000  1
  C  C100  1  0.67170000  0.74960000  0.32060000  1
  C  C101  1  0.67170000  0.75040000  0.82060000  1
  C  C102  1  0.67300000  0.11970000  0.50860000  1
  C  C103  1  0.67300000  0.38030000  0.00860000  1
  C  C104  1  0.67750000  0.60870000  0.28440000  1
  C  C105  1  0.67750000  0.89130000  0.78440000  1
  C  C106  1  0.68650000  0.12740000  0.40220000  1
  C  C107  1  0.68650000  0.37260000  0.90220000  1
  C  C108  1  0.70530000  0.14720000  0.56340000  1
  C  C109  1  0.70530000  0.35280000  0.06340000  1
  C  C110  1  0.72210000  0.15800000  0.46170000  1
  C  C111  1  0.72210000  0.34200000  0.96170000  1
  C  C112  1  0.75610000  0.72840000  0.36290000  1
  C  C113  1  0.75610000  0.77160000  0.86290000  1
  C  C114  1  0.76440000  0.58850000  0.32720000  1
  C  C115  1  0.76440000  0.91150000  0.82720000  1
  C  C116  1  0.78560000  0.21320000  0.57060000  1
  C  C117  1  0.78560000  0.28680000  0.07060000  1
  C  C118  1  0.80240000  0.22400000  0.46960000  1
  C  C119  1  0.80240000  0.27600000  0.96960000  1
  C  C120  1  0.80310000  0.00640000  0.94020000  1
  C  C121  1  0.80310000  0.49360000  0.44020000  1
  C  C122  1  0.80440000  0.64840000  0.36690000  1
  C  C123  1  0.80440000  0.85160000  0.86690000  1
  C  C124  1  0.80850000  0.07910000  0.96890000  1
  C  C125  1  0.80850000  0.42090000  0.46890000  1
  C  C126  1  0.83450000  0.24680000  0.02440000  1
  C  C127  1  0.83450000  0.25320000  0.52440000  1
  C  C128  1  0.89750000  0.62900000  0.41250000  1
  C  C129  1  0.89750000  0.87100000  0.91250000  1
  C  C130  1  0.89860000  0.55410000  0.44450000  1
  C  C131  1  0.89860000  0.94590000  0.94450000  1
  C  C132  1  0.91130000  0.10060000  0.00580000  1
  C  C133  1  0.91130000  0.39940000  0.50580000  1
  C  C134  1  0.92060000  0.17740000  0.03480000  1
  C  C135  1  0.92060000  0.32260000  0.53480000  1
  C  C136  1  0.98700000  0.68900000  0.42470000  1
  C  C137  1  0.98700000  0.81100000  0.92470000  1
  C  C138  1  0.99700000  0.53880000  0.48480000  1
  C  C139  1  0.99700000  0.96120000  0.98480000  1
  O  O140  1  0.27350000  0.66680000  0.13930000  1
  O  O141  1  0.27350000  0.83320000  0.63930000  1
  O  O142  1  0.30900000  0.63410000  0.83780000  1
  O  O143  1  0.30900000  0.86590000  0.33780000  1
  O  O144  1  0.33450000  0.11180000  0.64320000  1
  O  O145  1  0.33450000  0.38820000  0.14320000  1
  O  O146  1  0.34780000  0.53390000  0.73890000  1
  O  O147  1  0.34780000  0.96610000  0.23890000  1
  O  O148  1  0.37900000  0.56550000  0.10138000  1
  O  O149  1  0.37900000  0.93450000  0.60138000  1
  O  O150  1  0.43070000  0.55520000  0.89296000  1
  O  O151  1  0.43070000  0.94480000  0.39296000  1
  O  O152  1  0.43860000  0.06090000  0.29510000  1
  O  O153  1  0.43860000  0.43910000  0.79510000  1
  O  O154  1  0.46100000  0.14290000  0.71490000  1
  O  O155  1  0.46100000  0.35710000  0.21490000  1
  O  O156  1  0.53900000  0.64290000  0.78510000  1
  O  O157  1  0.53900000  0.85710000  0.28510000  1
  O  O158  1  0.56140000  0.56090000  0.20490000  1
  O  O159  1  0.56140000  0.93910000  0.70490000  1
  O  O160  1  0.56930000  0.05520000  0.60704000  1
  O  O161  1  0.56930000  0.44480000  0.10704000  1
  O  O162  1  0.62100000  0.06550000  0.39862000  1
  O  O163  1  0.62100000  0.43450000  0.89862000  1
  O  O164  1  0.65220000  0.03390000  0.76110000  1
  O  O165  1  0.65220000  0.46610000  0.26110000  1
  O  O166  1  0.66550000  0.61180000  0.85680000  1
  O  O167  1  0.66550000  0.88820000  0.35680000  1
  O  O168  1  0.69100000  0.13410000  0.66220000  1
  O  O169  1  0.69100000  0.36590000  0.16220000  1
  O  O170  1  0.72650000  0.16680000  0.36070000  1
  O  O171  1  0.72650000  0.33320000  0.86070000  1
