# generated using pymatgen
data_V16Co3Ge4H40C10(NO3)10
_symmetry_space_group_name_H-M   'P 1'
_cell_length_a   27.96065559
_cell_length_b   27.96080000
_cell_length_c   27.96080000
_cell_angle_alpha   101.39390000
_cell_angle_beta   113.65450656
_cell_angle_gamma   113.65480656
_symmetry_Int_Tables_number   1
_chemical_formula_structural   V16Co3Ge4H40C10(NO3)10
_chemical_formula_sum   'V128 Co24 Ge32 H320 C80 N80 O240'
_cell_volume   16581.92047386
_cell_formula_units_Z   8
loop_
 _symmetry_equiv_pos_site_id
 _symmetry_equiv_pos_as_xyz
  1  'x, y, z'
loop_
 _atom_site_type_symbol
 _atom_site_label
 _atom_site_symmetry_multiplicity
 _atom_site_fract_x
 _atom_site_fract_y
 _atom_site_fract_z
 _atom_site_occupancy
  V  V0  1  0.85534000  0.06033000  0.85761000  1
  V  V1  1  0.58744000  0.93732000  0.59004000  1
  V  V2  1  0.19474000  0.55646000  0.19740000  1
  V  V3  1  0.09240000  0.90081000  0.09935000  1
  V  V4  1  0.82913000  0.42671000  0.84148000  1
  V  V5  1  0.86692000  0.57585000  0.88315000  1
  V  V6  1  0.32159000  0.41712000  0.34707000  1
  V  V7  1  0.07605000  0.39907000  0.10554000  1
  V  V8  1  0.30718000  0.91209000  0.35039000  1
  V  V9  1  0.60519000  0.35230000  0.65493000  1
  V  V10  1  0.64094000  0.50266000  0.69740000  1
  V  V11  1  0.69854000  0.34935000  0.75695000  1
  V  V12  1  0.14466000  0.00227000  0.20499000  1
  V  V13  1  0.66060000  0.83617000  0.72739000  1
  V  V14  1  0.25279000  0.07557000  0.32480000  1
  V  V15  1  0.74923000  0.57480000  0.82201000  1
  V  V16  1  0.57605000  0.85554000  0.64907000  1
  V  V17  1  0.24721000  0.57278000  0.32201000  1
  V  V18  1  0.74721000  0.07201000  0.82278000  1
  V  V19  1  0.30730000  0.51623000  0.38315000  1
  V  V20  1  0.08523000  0.84758000  0.17671000  1
  V  V21  1  0.17841000  0.84553000  0.27548000  1
  V  V22  1  0.08744000  0.34004000  0.18732000  1
  V  V23  1  0.19282000  0.35491000  0.29321000  1
  V  V24  1  0.70272000  0.45499000  0.81033000  1
  V  V25  1  0.69474000  0.94740000  0.80646000  1
  V  V26  1  0.19270000  0.95893000  0.32585000  1
  V  V27  1  0.33077000  0.48800000  0.62455000  1
  V  V28  1  0.79599000  0.99334000  0.09795000  1
  V  V29  1  0.75543000  0.45642000  0.07875000  1
  V  V30  1  0.87767000  0.95099000  0.20642000  1
  V  V31  1  0.75764000  0.87696000  0.08844000  1
  V  V32  1  0.89122000  0.56679000  0.22739000  1
  V  V33  1  0.28852000  0.36932000  0.62696000  1
  V  V34  1  0.91256000  0.09988000  0.25260000  1
  V  V35  1  0.42995000  0.59707000  0.77548000  1
  V  V36  1  0.32913000  0.59148000  0.67671000  1
  V  V37  1  0.39539000  0.44735000  0.74334000  1
  V  V38  1  0.30146000  0.05841000  0.65081000  1
  V  V39  1  0.39481000  0.04974000  0.74711000  1
  V  V40  1  0.80718000  0.10039000  0.16209000  1
  V  V41  1  0.79353000  0.57302000  0.14907000  1
  V  V42  1  0.71148000  0.33844000  0.08080000  1
  V  V43  1  0.16923000  0.90723000  0.54378000  1
  V  V44  1  0.21148000  0.83080000  0.58844000  1
  V  V45  1  0.92395000  0.02949000  0.32302000  1
  V  V46  1  0.19854000  0.50695000  0.59935000  1
  V  V47  1  0.89481000  0.49711000  0.29974000  1
  V  V48  1  0.63655000  0.87455000  0.04378000  1
  V  V49  1  0.43830000  0.54321000  0.85039000  1
  V  V50  1  0.67841000  0.02548000  0.09553000  1
  V  V51  1  0.39122000  0.97739000  0.81679000  1
  V  V52  1  0.17087000  0.01235000  0.59758000  1
  V  V53  1  0.65272000  0.50260000  0.09004000  1
  V  V54  1  0.60461000  0.34795000  0.05196000  1
  V  V55  1  0.85906000  0.61172000  0.30646000  1
  V  V56  1  0.25543000  0.82875000  0.70642000  1
  V  V57  1  0.29728000  0.10761000  0.75227000  1
  V  V58  1  0.24457000  0.32332000  0.70099000  1
  V  V59  1  0.36692000  0.63315000  0.82585000  1
  V  V60  1  0.83940000  0.92557000  0.31679000  1
  V  V61  1  0.66923000  0.29378000  0.15723000  1
  V  V62  1  0.10461000  0.80196000  0.59795000  1
  V  V63  1  0.10519000  0.40493000  0.60230000  1
  V  V64  1  0.20272000  0.56033000  0.70499000  1
  V  V65  1  0.34728000  0.43732000  0.84988000  1
  V  V66  1  0.35906000  0.05646000  0.86172000  1
  V  V67  1  0.80146000  0.40081000  0.30841000  1
  V  V68  1  0.58523000  0.92671000  0.09758000  1
  V  V69  1  0.69270000  0.07585000  0.20893000  1
  V  V70  1  0.07005000  0.91712000  0.59553000  1
  V  V71  1  0.29353000  0.89907000  0.82302000  1
  V  V72  1  0.56170000  0.41209000  0.10491000  1
  V  V73  1  0.69737000  0.85230000  0.24711000  1
  V  V74  1  0.80526000  0.00266000  0.36172000  1
  V  V75  1  0.59240000  0.84935000  0.15081000  1
  V  V76  1  0.79728000  0.50227000  0.35761000  1
  V  V77  1  0.10878000  0.33617000  0.67557000  1
  V  V78  1  0.75077000  0.57557000  0.32278000  1
  V  V79  1  0.75279000  0.07480000  0.32557000  1
  V  V80  1  0.20647000  0.35554000  0.77949000  1
  V  V81  1  0.25077000  0.07278000  0.82557000  1
  V  V82  1  0.24923000  0.57201000  0.82480000  1
  V  V83  1  0.13308000  0.01623000  0.70893000  1
  V  V84  1  0.67087000  0.34758000  0.26235000  1
  V  V85  1  0.57005000  0.34553000  0.16712000  1
  V  V86  1  0.15272000  0.84004000  0.75260000  1
  V  V87  1  0.06170000  0.85491000  0.66209000  1
  V  V88  1  0.64466000  0.95499000  0.25227000  1
  V  V89  1  0.14094000  0.44740000  0.75266000  1
  V  V90  1  0.63308000  0.45893000  0.26623000  1
  V  V91  1  0.86345000  0.98800000  0.65723000  1
  V  V92  1  0.89539000  0.49334000  0.69735000  1
  V  V93  1  0.37767000  0.95642000  0.20099000  1
  V  V94  1  0.74457000  0.45099000  0.57332000  1
  V  V95  1  0.78852000  0.37696000  0.61932000  1
  V  V96  1  0.33940000  0.06679000  0.17557000  1
  V  V97  1  0.74236000  0.86932000  0.58080000  1
  V  V98  1  0.84728000  0.59988000  0.68732000  1
  V  V99  1  0.82159000  0.09707000  0.66712000  1
  V  V100  1  0.91477000  0.09148000  0.76235000  1
  V  V101  1  0.70401000  0.94735000  0.55196000  1
  V  V102  1  0.40760000  0.55841000  0.25695000  1
  V  V103  1  0.30263000  0.54974000  0.15493000  1
  V  V104  1  0.93830000  0.60039000  0.79321000  1
  V  V105  1  0.42395000  0.07302000  0.27949000  1
  V  V106  1  0.25764000  0.83844000  0.12696000  1
  V  V107  1  0.36345000  0.40723000  0.23800000  1
  V  V108  1  0.24236000  0.33080000  0.11932000  1
  V  V109  1  0.70647000  0.52949000  0.60554000  1
  V  V110  1  0.90760000  0.00695000  0.80841000  1
  V  V111  1  0.19737000  0.99711000  0.10230000  1
  V  V112  1  0.83077000  0.37455000  0.73800000  1
  V  V113  1  0.69282000  0.04321000  0.60491000  1
  V  V114  1  0.92995000  0.52548000  0.84707000  1
  V  V115  1  0.16060000  0.47739000  0.08617000  1
  V  V116  1  0.41477000  0.51235000  0.34148000  1
  V  V117  1  0.41256000  0.00260000  0.34988000  1
  V  V118  1  0.29599000  0.84795000  0.24334000  1
  V  V119  1  0.30526000  0.11172000  0.25266000  1
  V  V120  1  0.12233000  0.32875000  0.07332000  1
  V  V121  1  0.35534000  0.60761000  0.31033000  1
  V  V122  1  0.62233000  0.82332000  0.57875000  1
  V  V123  1  0.80730000  0.13315000  0.76623000  1
  V  V124  1  0.60878000  0.42557000  0.58617000  1
  V  V125  1  0.13655000  0.79378000  0.12455000  1
  V  V126  1  0.20401000  0.30196000  0.19735000  1
  V  V127  1  0.80263000  0.90493000  0.79974000  1
  Co  Co128  1  0.66239000  0.20581000  0.72036000  1
  Co  Co129  1  0.33040000  0.93993000  0.48379000  1
  Co  Co130  1  0.01199000  0.98869000  0.19768000  1
  Co  Co131  1  0.33761000  0.05797000  0.54342000  1
  Co  Co132  1  0.70899000  0.44768000  0.93569000  1
  Co  Co133  1  0.16960000  0.35953000  0.40339000  1
  Co  Co134  1  0.16239000  0.47036000  0.45581000  1
  Co  Co135  1  0.83040000  0.23379000  0.18993000  1
  Co  Co136  1  0.54386000  0.65339000  0.98379000  1
  Co  Co137  1  0.29101000  0.22670000  0.73869000  1
  Co  Co138  1  0.83761000  0.29342000  0.30797000  1
  Co  Co139  1  0.20899000  0.68569000  0.69768000  1
  Co  Co140  1  0.48545000  0.70581000  0.04342000  1
  Co  Co141  1  0.45614000  0.43993000  0.10953000  1
  Co  Co142  1  0.79101000  0.48869000  0.47670000  1
  Co  Co143  1  0.51455000  0.55797000  0.22036000  1
  Co  Co144  1  0.51199000  0.94768000  0.23869000  1
  Co  Co145  1  0.95614000  0.85953000  0.68993000  1
  Co  Co146  1  0.01455000  0.97036000  0.80797000  1
  Co  Co147  1  0.04386000  0.73379000  0.90339000  1
  Co  Co148  1  0.66960000  0.15339000  0.60953000  1
  Co  Co149  1  0.48801000  0.72670000  0.43569000  1
  Co  Co150  1  0.98545000  0.79342000  0.95581000  1
  Co  Co151  1  0.98801000  0.18569000  0.97670000  1
  Ge  Ge152  1  0.65756000  0.07733000  0.69607000  1
  Ge  Ge153  1  0.34244000  0.03851000  0.41977000  1
  Ge  Ge154  1  0.59481000  0.97801000  0.72036000  1
  Ge  Ge155  1  0.09481000  0.47036000  0.22801000  1
  Ge  Ge156  1  0.15756000  0.44607000  0.32733000  1
  Ge  Ge157  1  0.32045000  0.95774000  0.60183000  1
  Ge  Ge158  1  0.86678000  0.43862000  0.16350000  1
  Ge  Ge159  1  0.36678000  0.91350000  0.68862000  1
  Ge  Ge160  1  0.17955000  0.38729000  0.53138000  1
  Ge  Ge161  1  0.82045000  0.35183000  0.20774000  1
  Ge  Ge162  1  0.77512000  0.82184000  0.18862000  1
  Ge  Ge163  1  0.13322000  0.29672000  0.57184000  1
  Ge  Ge164  1  0.84244000  0.16977000  0.28851000  1
  Ge  Ge165  1  0.64409000  0.78138000  0.10183000  1
  Ge  Ge166  1  0.90519000  0.13320000  0.37555000  1
  Ge  Ge167  1  0.74235000  0.62555000  0.22036000  1
  Ge  Ge168  1  0.38126000  0.57733000  0.91977000  1
  Ge  Ge169  1  0.61874000  0.53851000  0.19607000  1
  Ge  Ge170  1  0.25765000  0.47801000  0.88320000  1
  Ge  Ge171  1  0.24235000  0.97036000  0.87555000  1
  Ge  Ge172  1  0.11874000  0.94607000  0.78851000  1
  Ge  Ge173  1  0.35591000  0.45774000  0.13729000  1
  Ge  Ge174  1  0.27512000  0.93862000  0.07184000  1
  Ge  Ge175  1  0.22488000  0.41350000  0.04672000  1
  Ge  Ge176  1  0.85591000  0.88729000  0.70774000  1
  Ge  Ge177  1  0.14409000  0.85183000  0.03138000  1
  Ge  Ge178  1  0.63322000  0.32184000  0.54672000  1
  Ge  Ge179  1  0.72488000  0.79672000  0.66350000  1
  Ge  Ge180  1  0.88126000  0.66977000  0.82733000  1
  Ge  Ge181  1  0.67955000  0.28138000  0.63729000  1
  Ge  Ge182  1  0.75765000  0.63320000  0.72801000  1
  Ge  Ge183  1  0.40519000  0.12555000  0.38320000  1
  H  H184  1  0.54670000  0.02310000  0.55020000  1
  H  H185  1  0.77620000  0.28720000  0.78380000  1
  H  H186  1  0.48720000  0.80710000  0.49710000  1
  H  H187  1  0.45330000  0.00350000  0.47640000  1
  H  H188  1  0.95880000  0.70870000  0.98330000  1
  H  H189  1  0.02170000  0.14340000  0.04790000  1
  H  H190  1  0.87360000  0.77150000  0.90150000  1
  H  H191  1  0.40470000  0.63830000  0.43360000  1
  H  H192  1  0.46070000  0.66600000  0.49070000  1
  H  H193  1  0.94130000  0.27900000  0.97330000  1
  H  H194  1  0.00340000  0.76100000  0.03720000  1
  H  H195  1  0.87350000  0.23060000  0.92270000  1
  H  H196  1  0.54620000  0.06530000  0.59570000  1
  H  H197  1  0.80970000  0.26650000  0.86240000  1
  H  H198  1  0.90410000  0.81360000  0.96030000  1
  H  H199  1  0.36650000  0.72020000  0.42310000  1
  H  H200  1  0.45380000  0.04950000  0.51910000  1
  H  H201  1  0.98720000  0.24710000  0.05710000  1
  H  H202  1  0.84640000  0.69830000  0.92110000  1
  H  H203  1  0.56540000  0.19520000  0.64960000  1
  H  H204  1  0.43470000  0.94720000  0.51970000  1
  H  H205  1  0.76870000  0.29310000  0.85540000  1
  H  H206  1  0.44130000  0.72330000  0.52900000  1
  H  H207  1  0.39550000  0.76630000  0.48500000  1
  H  H208  1  0.97510000  0.95480000  0.06730000  1
  H  H209  1  0.94760000  0.18690000  0.04410000  1
  H  H210  1  0.72280000  0.17110000  0.82470000  1
  H  H211  1  0.86650000  0.17310000  0.97020000  1
  H  H212  1  0.54860000  0.14070000  0.65290000  1
  H  H213  1  0.93770000  0.77440000  0.04310000  1
  H  H214  1  0.37350000  0.67270000  0.48060000  1
  H  H215  1  0.90410000  0.70680000  0.01650000  1
  H  H216  1  0.89550000  0.23500000  0.01630000  1
  H  H217  1  0.83910000  0.74000000  0.96050000  1
  H  H218  1  0.44430000  0.99110000  0.56620000  1
  H  H219  1  0.90570000  0.93670000  0.03740000  1
  H  H220  1  0.00390000  0.90240000  0.13670000  1
  H  H221  1  0.91830000  0.86010000  0.05380000  1
  H  H222  1  0.79530000  0.52890000  0.93360000  1
  H  H223  1  0.45140000  0.10430000  0.59210000  1
  H  H224  1  0.97830000  0.02620000  0.12170000  1
  H  H225  1  0.28170000  0.41440000  0.42910000  1
  H  H226  1  0.63000000  0.15150000  0.77790000  1
  H  H227  1  0.34350000  0.85260000  0.49150000  1
  H  H228  1  0.73430000  0.38670000  0.88280000  1
  H  H229  1  0.33160000  0.38460000  0.48060000  1
  H  H230  1  0.72050000  0.21050000  0.87140000  1
  H  H231  1  0.37000000  0.14790000  0.52150000  1
  H  H232  1  0.25190000  0.80290000  0.40940000  1
  H  H233  1  0.24810000  0.30100000  0.40750000  1
  H  H234  1  0.64670000  0.21030000  0.80620000  1
  H  H235  1  0.55500000  0.22630000  0.71790000  1
  H  H236  1  0.82470000  0.53000000  0.99070000  1
  H  H237  1  0.46300000  0.18480000  0.63020000  1
  H  H238  1  0.77410000  0.40410000  0.94420000  1
  H  H239  1  0.27720000  0.10190000  0.44830000  1
  H  H240  1  0.80790000  0.60710000  0.98060000  1
  H  H241  1  0.13350000  0.10370000  0.30660000  1
  H  H242  1  0.21830000  0.88270000  0.39740000  1
  H  H243  1  0.09530000  0.98360000  0.27890000  1
  H  H244  1  0.53700000  0.16720000  0.72180000  1
  H  H245  1  0.05240000  0.09650000  0.23930000  1
  H  H246  1  0.69370000  0.30380000  0.88550000  1
  H  H247  1  0.95990000  0.88000000  0.15410000  1
  H  H248  1  0.43460000  0.08420000  0.62980000  1
  H  H249  1  0.92270000  0.98830000  0.11980000  1
  H  H250  1  0.88570000  0.87630000  0.08280000  1
  H  H251  1  0.28270000  0.43930000  0.48060000  1
  H  H252  1  0.22280000  0.57470000  0.42110000  1
  H  H253  1  0.26140000  0.29110000  0.46350000  1
  H  H254  1  0.30970000  0.61240000  0.51650000  1
  H  H255  1  0.31930000  0.86310000  0.52740000  1
  H  H256  1  0.27460000  0.52450000  0.48330000  1
  H  H257  1  0.35330000  0.15950000  0.56360000  1
  H  H258  1  0.27950000  0.15090000  0.49000000  1
  H  H259  1  0.23860000  0.77970000  0.45210000  1
  H  H260  1  0.30090000  0.38390000  0.51700000  1
  H  H261  1  0.70290000  0.55660000  0.92310000  1
  H  H262  1  0.80570000  0.58770000  0.02900000  1
  H  H263  1  0.44500000  0.16290000  0.67130000  1
  H  H264  1  0.04670000  0.30020000  0.27310000  1
  H  H265  1  0.61250000  0.31730000  0.84220000  1
  H  H266  1  0.21730000  0.90660000  0.44790000  1
  H  H267  1  0.16840000  0.80300000  0.39900000  1
  H  H268  1  0.12650000  0.04920000  0.35710000  1
  H  H269  1  0.22540000  0.99990000  0.45870000  1
  H  H270  1  0.10450000  0.12080000  0.33950000  1
  H  H271  1  0.22050000  0.62140000  0.46050000  1
  H  H272  1  0.70650000  0.33280000  0.94710000  1
  H  H273  1  0.03930000  0.95530000  0.28000000  1
  H  H274  1  0.15650000  0.25910000  0.39800000  1
  H  H275  1  0.01280000  0.06990000  0.25990000  1
  H  H276  1  0.84350000  0.24150000  0.10260000  1
  H  H277  1  0.27620000  0.53380000  0.53720000  1
  H  H278  1  0.93470000  0.26970000  0.19720000  1
  H  H279  1  0.71870000  0.58950000  0.98500000  1
  H  H280  1  0.19030000  0.05270000  0.45680000  1
  H  H281  1  0.19910000  0.83300000  0.46610000  1
  H  H282  1  0.04620000  0.34570000  0.31530000  1
  H  H283  1  0.06530000  0.26250000  0.33500000  1
  H  H284  1  0.13000000  0.52790000  0.40150000  1
  H  H285  1  0.26870000  0.60540000  0.54310000  1
  H  H286  1  0.18070000  0.29380000  0.45810000  1
  H  H287  1  0.05870000  0.03200000  0.33770000  1
  H  H288  1  0.67240000  0.71350000  0.95210000  1
  H  H289  1  0.60070000  0.28740000  0.88170000  1
  H  H290  1  0.22380000  0.00760000  0.51100000  1
  H  H291  1  0.39930000  0.28100000  0.68670000  1
  H  H292  1  0.73860000  0.20210000  0.02970000  1
  H  H293  1  0.23130000  0.08670000  0.52440000  1
  H  H294  1  0.81930000  0.27740000  0.11310000  1
  H  H295  1  0.64280000  0.48930000  0.93690000  1
  H  H296  1  0.94430000  0.31620000  0.24110000  1
  H  H297  1  0.59550000  0.37170000  0.89340000  1
  H  H298  1  0.95330000  0.22640000  0.25350000  1
  H  H299  1  0.75190000  0.15940000  0.05290000  1
  H  H300  1  0.60650000  0.65750000  0.90940000  1
  H  H301  1  0.59600000  0.73060000  0.89900000  1
  H  H302  1  0.30630000  0.19180000  0.61010000  1
  H  H303  1  0.69000000  0.50990000  0.99710000  1
  H  H304  1  0.14670000  0.55620000  0.46030000  1
  H  H305  1  0.63150000  0.36980000  0.94710000  1
  H  H306  1  0.05570000  0.29680000  0.37190000  1
  H  H307  1  0.38750000  0.22970000  0.70480000  1
  H  H308  1  0.29350000  0.24060000  0.62630000  1
  H  H309  1  0.63310000  0.76700000  0.96610000  1
  H  H310  1  0.04860000  0.40290000  0.39070000  1
  H  H311  1  0.95380000  0.26910000  0.29950000  1
  H  H312  1  0.63890000  0.64800000  0.99150000  1
  H  H313  1  0.19370000  0.63550000  0.55380000  1
  H  H314  1  0.66430000  0.70810000  0.02740000  1
  H  H315  1  0.36850000  0.31560000  0.73830000  1
  H  H316  1  0.40450000  0.29790000  0.77620000  1
  H  H317  1  0.20650000  0.69710000  0.58280000  1
  H  H318  1  0.06540000  0.39960000  0.44520000  1
  H  H319  1  0.27410000  0.69420000  0.65410000  1
  H  H320  1  0.03700000  0.47180000  0.41720000  1
  H  H321  1  0.51470000  0.67910000  0.89740000  1
  H  H322  1  0.69910000  0.21610000  0.08300000  1
  H  H323  1  0.66840000  0.14900000  0.05300000  1
  H  H324  1  0.26570000  0.14850000  0.65240000  1
  H  H325  1  0.93460000  0.37980000  0.33420000  1
  H  H326  1  0.23430000  0.63280000  0.63670000  1
  H  H327  1  0.95140000  0.34210000  0.35430000  1
  H  H328  1  0.22590000  0.17010000  0.63000000  1
  H  H329  1  0.54130000  0.73060000  0.94790000  1
  H  H330  1  0.71830000  0.14740000  0.13270000  1
  H  H331  1  0.05500000  0.46790000  0.47630000  1
  H  H332  1  0.10070000  0.63170000  0.53740000  1
  H  H333  1  0.71730000  0.19790000  0.15660000  1
  H  H334  1  0.57250000  0.58500000  0.01970000  1
  H  H335  1  0.11250000  0.59220000  0.56730000  1
  H  H336  1  0.32470000  0.74070000  0.78000000  1
  H  H337  1  0.94500000  0.42130000  0.41290000  1
  H  H338  1  0.96300000  0.38020000  0.43480000  1
  H  H339  1  0.29530000  0.68360000  0.77890000  1
  H  H340  1  0.13150000  0.69710000  0.61980000  1
  H  H341  1  0.35720000  0.29410000  0.84650000  1
  H  H342  1  0.57510000  0.62190000  0.06620000  1
  H  H343  1  0.45880000  0.73330000  0.95870000  1
  H  H344  1  0.47290000  0.52310000  0.97640000  1
  H  H345  1  0.50340000  0.78720000  0.01100000  1
  H  H346  1  0.31000000  0.30710000  0.81990000  1
  H  H347  1  0.52710000  0.50350000  0.05020000  1
  H  H348  1  0.72540000  0.20870000  0.24990000  1
  H  H349  1  0.09550000  0.64340000  0.62170000  1
  H  H350  1  0.87000000  0.27150000  0.39790000  1
  H  H351  1  0.20470000  0.13830000  0.73360000  1
  H  H352  1  0.17530000  0.16600000  0.70530000  1
  H  H353  1  0.30570000  0.77900000  0.83770000  1
  H  H354  1  0.72380000  0.26100000  0.25760000  1
  H  H355  1  0.30790000  0.73060000  0.85710000  1
  H  H356  1  0.46960000  0.56530000  0.01910000  1
  H  H357  1  0.40410000  0.76650000  0.95680000  1
  H  H358  1  0.85330000  0.31360000  0.40950000  1
  H  H359  1  0.29710000  0.22020000  0.85370000  1
  H  H360  1  0.53040000  0.54950000  0.09570000  1
  H  H361  1  0.19000000  0.74710000  0.75990000  1
  H  H362  1  0.77720000  0.19830000  0.35190000  1
  H  H363  1  0.54560000  0.69520000  0.12980000  1
  H  H364  1  0.42750000  0.44720000  0.01250000  1
  H  H365  1  0.43770000  0.79310000  0.02440000  1
  H  H366  1  0.19430000  0.22330000  0.78200000  1
  H  H367  1  0.28130000  0.26630000  0.87080000  1
  H  H368  1  0.88750000  0.45480000  0.47970000  1
  H  H369  1  0.14280000  0.68690000  0.73930000  1
  H  H370  1  0.34640000  0.67110000  0.94830000  1
  H  H371  1  0.20290000  0.67310000  0.80660000  1
  H  H372  1  0.48780000  0.64070000  0.09210000  1
  H  H373  1  0.73130000  0.27440000  0.33670000  1
  H  H374  1  0.19210000  0.17270000  0.79920000  1
  H  H375  1  0.69030000  0.20680000  0.30270000  1
  H  H376  1  0.21870000  0.73500000  0.83950000  1
  H  H377  1  0.77950000  0.24000000  0.40090000  1
  H  H378  1  0.42490000  0.49110000  0.04680000  1
  H  H379  1  0.89930000  0.43670000  0.53100000  1
  H  H380  1  0.76570000  0.40240000  0.39850000  1
  H  H381  1  0.80630000  0.36010000  0.44180000  1
  H  H382  1  0.59530000  0.02890000  0.23360000  1
  H  H383  1  0.51220000  0.60430000  0.15290000  1
  H  H384  1  0.90450000  0.52620000  0.54790000  1
  H  H385  1  0.98530000  0.91440000  0.63270000  1
  H  H386  1  0.37360000  0.65150000  0.02150000  1
  H  H387  1  0.36110000  0.35260000  0.00910000  1
  H  H388  1  0.50390000  0.88670000  0.15240000  1
  H  H389  1  0.90400000  0.88460000  0.55300000  1
  H  H390  1  0.33910000  0.71050000  0.99000000  1
  H  H391  1  0.62640000  0.64790000  0.27790000  1
  H  H392  1  0.39350000  0.30290000  0.05100000  1
  H  H393  1  0.89350000  0.80100000  0.55290000  1
  H  H394  1  0.40410000  0.71030000  0.06360000  1
  H  H395  1  0.50840000  0.72630000  0.17130000  1
  H  H396  1  0.53930000  0.03000000  0.20530000  1
  H  H397  1  0.55460000  0.68480000  0.22180000  1
  H  H398  1  0.45990000  0.90410000  0.13000000  1
  H  H399  1  0.65360000  0.60190000  0.32470000  1
  H  H400  1  0.62650000  0.10710000  0.29920000  1
  H  H401  1  0.79710000  0.60370000  0.47020000  1
  H  H402  1  0.48530000  0.38270000  0.16440000  1
  H  H403  1  0.70470000  0.48360000  0.38830000  1
  H  H404  1  0.44540000  0.66720000  0.13020000  1
  H  H405  1  0.85720000  0.59650000  0.54410000  1
  H  H406  1  0.41830000  0.80380000  0.11010000  1
  H  H407  1  0.72590000  0.38000000  0.42010000  1
  H  H408  1  0.45440000  0.58420000  0.14960000  1
  H  H409  1  0.86850000  0.48830000  0.56560000  1
  H  H410  1  0.79350000  0.37630000  0.49060000  1
  H  H411  1  0.95870000  0.93930000  0.65660000  1
  H  H412  1  0.15360000  0.07470000  0.85190000  1
  H  H413  1  0.82760000  0.79110000  0.52970000  1
  H  H414  1  0.09590000  0.11240000  0.80270000  1
  H  H415  1  0.33570000  0.36310000  0.04380000  1
  H  H416  1  0.04120000  0.02450000  0.74990000  1
  H  H417  1  0.59590000  0.65950000  0.30620000  1
  H  H418  1  0.66090000  0.65090000  0.37140000  1
  H  H419  1  0.32760000  0.27970000  0.04110000  1
  H  H420  1  0.86690000  0.88390000  0.58300000  1
  H  H421  1  0.63350000  0.05660000  0.35370000  1
  H  H422  1  0.55870000  0.08770000  0.28200000  1
  H  H423  1  0.49160000  0.66290000  0.21790000  1
  H  H424  1  0.02710000  0.80020000  0.75350000  1
  H  H425  1  0.47510000  0.81730000  0.20480000  1
  H  H426  1  0.69210000  0.54920000  0.42270000  1
  H  H427  1  0.45870000  0.40660000  0.18930000  1
  H  H428  1  0.40400000  0.30300000  0.13460000  1
  H  H429  1  0.54120000  0.49990000  0.27450000  1
  H  H430  1  0.78130000  0.62080000  0.51630000  1
  H  H431  1  0.16090000  0.12140000  0.90090000  1
  H  H432  1  0.38570000  0.83280000  0.12630000  1
  H  H433  1  0.67530000  0.45530000  0.41600000  1
  H  H434  1  0.86110000  0.75910000  0.60260000  1
  H  H435  1  0.81000000  0.56990000  0.55710000  1
  H  H436  1  0.13890000  0.74150000  0.89800000  1
  H  H437  1  0.99660000  0.03380000  0.75760000  1
  H  H438  1  0.07250000  0.76970000  0.83500000  1
  H  H439  1  0.60450000  0.08950000  0.37080000  1
  H  H440  1  0.59590000  0.55270000  0.36240000  1
  H  H441  1  0.36690000  0.33300000  0.13390000  1
  H  H442  1  0.03040000  0.84570000  0.79950000  1
  H  H443  1  0.92750000  0.76250000  0.69720000  1
  H  H444  1  0.12640000  0.02790000  0.89790000  1
  H  H445  1  0.06230000  0.10540000  0.83670000  1
  H  H446  1  0.83570000  0.79380000  0.61310000  1
  H  H447  1  0.69430000  0.53200000  0.47330000  1
  H  H448  1  0.76140000  0.21350000  0.54110000  1
  H  H449  1  0.40570000  0.78740000  0.18670000  1
  H  H450  1  0.49660000  0.50760000  0.28380000  1
  H  H451  1  0.59430000  0.78100000  0.38170000  1
  H  H452  1  0.17240000  0.70210000  0.96350000  1
  H  H453  1  0.56230000  0.58670000  0.35540000  1
  H  H454  1  0.16430000  0.77740000  0.95810000  1
  H  H455  1  0.55240000  0.98930000  0.34650000  1
  H  H456  1  0.07510000  0.81620000  0.87190000  1
  H  H457  1  0.47830000  0.87170000  0.27620000  1
  H  H458  1  0.97290000  0.72640000  0.77310000  1
  H  H459  1  0.10650000  0.65940000  0.90750000  1
  H  H460  1  0.74810000  0.15750000  0.55100000  1
  H  H461  1  0.83160000  0.23060000  0.63460000  1
  H  H462  1  0.58170000  0.69180000  0.38550000  1
  H  H463  1  0.51280000  0.00990000  0.31990000  1
  H  H464  1  0.09590000  0.05620000  0.90950000  1
  H  H465  1  0.42270000  0.86980000  0.23830000  1
  H  H466  1  0.92490000  0.79680000  0.74110000  1
  H  H467  1  0.52490000  0.72970000  0.34220000  1
  H  H468  1  0.61430000  0.74060000  0.44710000  1
  H  H469  1  0.80090000  0.26700000  0.63390000  1
  H  H470  1  0.01220000  0.90290000  0.85430000  1
  H  H471  1  0.96960000  0.76910000  0.81530000  1
  H  H472  1  0.65650000  0.14800000  0.50910000  1
  H  H473  1  0.08170000  0.13550000  0.94180000  1
  H  H474  1  0.68070000  0.20810000  0.54380000  1
  H  H475  1  0.57730000  0.81560000  0.44710000  1
  H  H476  1  0.52170000  0.79790000  0.39340000  1
  H  H477  1  0.11430000  0.19710000  0.99060000  1
  H  H478  1  0.95440000  0.89960000  0.83420000  1
  H  H479  1  0.04010000  0.19420000  0.92010000  1
  H  H480  1  0.05460000  0.97180000  0.93480000  1
  H  H481  1  0.78170000  0.17910000  0.66440000  1
  H  H482  1  0.13310000  0.71610000  0.01700000  1
  H  H483  1  0.09600000  0.64900000  0.98060000  1
  H  H484  1  0.49610000  0.64850000  0.38280000  1
  H  H485  1  0.04560000  0.87980000  0.94520000  1
  H  H486  1  0.99610000  0.13280000  0.89850000  1
  H  H487  1  0.98780000  0.84210000  0.89070000  1
  H  H488  1  0.54010000  0.67010000  0.44420000  1
  H  H489  1  0.78270000  0.23060000  0.68930000  1
  H  H490  1  0.01470000  0.64740000  0.92910000  1
  H  H491  1  0.99160000  0.96790000  0.91290000  1
  H  H492  1  0.09430000  0.13170000  0.03100000  1
  H  H493  1  0.04130000  0.69790000  0.98060000  1
  H  H494  1  0.56530000  0.08500000  0.51250000  1
  H  H495  1  0.02490000  0.09220000  0.97970000  1
  H  H496  1  0.96070000  0.24070000  0.91600000  1
  H  H497  1  0.00840000  0.92130000  0.97630000  1
  H  H498  1  0.94540000  0.88020000  0.91720000  1
  H  H499  1  0.90470000  0.18360000  0.88830000  1
  H  H500  1  0.07730000  0.19710000  0.06560000  1
  H  H501  1  0.44760000  0.79410000  0.43690000  1
  H  H502  1  0.55570000  0.12190000  0.54680000  1
  H  H503  1  0.77460000  0.23330000  0.77450000  1
  C  C504  1  0.53530000  0.05130000  0.55600000  1
  C  C505  1  0.91250000  0.23750000  0.95160000  1
  C  C506  1  0.46470000  0.02070000  0.51600000  1
  C  C507  1  0.40250000  0.74220000  0.46210000  1
  C  C508  1  0.76910000  0.25960000  0.83810000  1
  C  C509  1  0.41250000  0.70160000  0.48750000  1
  C  C510  1  0.86840000  0.73570000  0.95290000  1
  C  C511  1  0.92150000  0.74050000  0.00960000  1
  C  C512  1  0.90250000  0.21210000  0.99220000  1
  C  C513  1  0.71720000  0.20290000  0.83450000  1
  C  C514  1  0.94050000  0.94430000  0.07240000  1
  C  C515  1  0.92400000  0.89030000  0.08350000  1
  C  C516  1  0.53530000  0.18530000  0.69540000  1
  C  C517  1  0.29290000  0.37400000  0.47810000  1
  C  C518  1  0.46470000  0.16010000  0.65000000  1
  C  C519  1  0.25170000  0.81350000  0.44440000  1
  C  C520  1  0.24830000  0.31180000  0.44270000  1
  C  C521  1  0.78590000  0.57500000  0.98750000  1
  C  C522  1  0.28280000  0.11730000  0.48570000  1
  C  C523  1  0.09750000  0.08970000  0.30960000  1
  C  C524  1  0.69320000  0.33350000  0.90950000  1
  C  C525  1  0.20710000  0.83110000  0.43520000  1
  C  C526  1  0.21720000  0.58450000  0.45290000  1
  C  C527  1  0.08750000  0.03910000  0.32500000  1
  C  C528  1  0.26910000  0.58810000  0.50960000  1
  C  C529  1  0.71990000  0.55960000  0.96210000  1
  C  C530  1  0.62810000  0.32240000  0.88190000  1
  C  C531  1  0.23090000  0.06900000  0.49050000  1
  C  C532  1  0.03530000  0.30600000  0.30130000  1
  C  C533  1  0.96470000  0.26600000  0.27070000  1
  C  C534  1  0.75170000  0.19440000  0.06350000  1
  C  C535  1  0.63090000  0.69270000  0.94440000  1
  C  C536  1  0.37190000  0.25380000  0.69430000  1
  C  C537  1  0.60410000  0.72810000  0.93520000  1
  C  C538  1  0.30680000  0.21630000  0.64030000  1
  C  C539  1  0.70710000  0.18520000  0.08110000  1
  C  C540  1  0.19320000  0.65950000  0.58350000  1
  C  C541  1  0.03530000  0.44540000  0.43530000  1
  C  C542  1  0.12810000  0.63190000  0.57240000  1
  C  C543  1  0.96470000  0.40000000  0.41010000  1
  C  C544  1  0.49530000  0.55130000  0.01600000  1
  C  C545  1  0.28590000  0.73750000  0.82500000  1
  C  C546  1  0.50470000  0.52070000  0.05600000  1
  C  C547  1  0.28010000  0.24220000  0.83970000  1
  C  C548  1  0.42150000  0.75960000  0.99050000  1
  C  C549  1  0.21410000  0.20160000  0.78910000  1
  C  C550  1  0.78280000  0.23570000  0.36730000  1
  C  C551  1  0.73090000  0.24050000  0.31900000  1
  C  C552  1  0.21990000  0.71210000  0.80960000  1
  C  C553  1  0.36840000  0.70290000  0.98570000  1
  C  C554  1  0.87190000  0.44430000  0.50380000  1
  C  C555  1  0.80680000  0.39030000  0.46630000  1
  C  C556  1  0.48990000  0.68530000  0.15000000  1
  C  C557  1  0.89590000  0.87400000  0.58110000  1
  C  C558  1  0.51010000  0.66010000  0.19540000  1
  C  C559  1  0.36910000  0.31350000  0.06180000  1
  C  C560  1  0.86910000  0.81180000  0.56350000  1
  C  C561  1  0.58750000  0.07500000  0.28910000  1
  C  C562  1  0.63160000  0.61730000  0.33450000  1
  C  C563  1  0.78010000  0.58970000  0.49220000  1
  C  C564  1  0.42400000  0.83350000  0.14030000  1
  C  C565  1  0.39590000  0.33110000  0.12400000  1
  C  C566  1  0.13160000  0.08450000  0.86730000  1
  C  C567  1  0.71410000  0.53910000  0.45160000  1
  C  C568  1  0.07850000  0.08810000  0.81900000  1
  C  C569  1  0.59750000  0.05960000  0.33970000  1
  C  C570  1  0.44050000  0.82240000  0.19430000  1
  C  C571  1  0.57850000  0.56900000  0.33810000  1
  C  C572  1  0.00470000  0.80600000  0.77070000  1
  C  C573  1  0.99530000  0.76600000  0.80130000  1
  C  C574  1  0.13090000  0.69440000  0.94270000  1
  C  C575  1  0.74830000  0.19270000  0.56180000  1
  C  C576  1  0.55950000  0.75380000  0.38190000  1
  C  C577  1  0.79290000  0.22810000  0.62400000  1
  C  C578  1  0.57600000  0.71630000  0.40950000  1
  C  C579  1  0.10410000  0.68520000  0.97810000  1
  C  C580  1  0.07600000  0.15950000  0.96630000  1
  C  C581  1  0.01010000  0.94540000  0.91010000  1
  C  C582  1  0.05950000  0.13190000  0.00380000  1
  C  C583  1  0.98990000  0.90000000  0.93530000  1
  N  N584  1  0.45710000  0.77830000  0.46160000  1
  N  N585  1  0.75780000  0.25230000  0.78370000  1
  N  N586  1  0.43620000  0.67240000  0.46360000  1
  N  N587  1  0.96860000  0.74450000  0.00230000  1
  N  N588  1  0.89800000  0.78060000  0.93900000  1
  N  N589  1  0.95710000  0.21160000  0.02830000  1
  N  N590  1  0.42870000  0.97630000  0.52800000  1
  N  N591  1  0.56910000  0.17890000  0.67460000  1
  N  N592  1  0.65840000  0.18900000  0.79100000  1
  N  N593  1  0.95710000  0.99210000  0.12180000  1
  N  N594  1  0.97440000  0.90510000  0.14030000  1
  N  N595  1  0.79120000  0.52740000  0.96360000  1
  N  N596  1  0.31570000  0.86010000  0.49340000  1
  N  N597  1  0.43090000  0.10550000  0.60980000  1
  N  N598  1  0.73520000  0.39030000  0.91590000  1
  N  N599  1  0.26810000  0.40580000  0.45230000  1
  N  N600  1  0.34160000  0.13260000  0.53060000  1
  N  N601  1  0.23190000  0.88770000  0.43420000  1
  N  N602  1  0.04290000  0.07120000  0.25450000  1
  N  N603  1  0.06380000  0.98620000  0.27740000  1
  N  N604  1  0.18430000  0.29440000  0.42770000  1
  N  N605  1  0.25780000  0.53370000  0.50230000  1
  N  N606  1  0.24220000  0.02590000  0.49450000  1
  N  N607  1  0.07130000  0.29760000  0.34930000  1
  N  N608  1  0.68330000  0.50450000  0.96160000  1
  N  N609  1  0.15840000  0.54100000  0.43900000  1
  N  N610  1  0.62970000  0.37180000  0.91470000  1
  N  N611  1  0.81570000  0.24340000  0.11010000  1
  N  N612  1  0.92870000  0.27800000  0.22630000  1
  N  N613  1  0.06910000  0.42460000  0.42890000  1
  N  N614  1  0.63330000  0.67770000  0.99340000  1
  N  N615  1  0.37030000  0.28500000  0.74210000  1
  N  N616  1  0.54650000  0.70230000  0.93420000  1
  N  N617  1  0.26480000  0.18070000  0.65510000  1
  N  N618  1  0.23520000  0.66590000  0.64030000  1
  N  N619  1  0.73190000  0.18420000  0.13770000  1
  N  N620  1  0.93090000  0.35980000  0.35550000  1
  N  N621  1  0.55170000  0.59930000  0.02800000  1
  N  N622  1  0.29120000  0.71360000  0.77740000  1
  N  N623  1  0.12970000  0.66470000  0.62180000  1
  N  N624  1  0.31670000  0.27830000  0.82120000  1
  N  N625  1  0.46860000  0.75230000  0.99450000  1
  N  N626  1  0.20880000  0.17240000  0.73620000  1
  N  N627  1  0.74220000  0.24450000  0.27590000  1
  N  N628  1  0.84160000  0.28060000  0.38260000  1
  N  N629  1  0.18330000  0.71160000  0.75450000  1
  N  N630  1  0.44830000  0.47630000  0.04760000  1
  N  N631  1  0.50430000  0.67890000  0.10980000  1
  N  N632  1  0.39800000  0.68900000  0.03060000  1
  N  N633  1  0.87030000  0.49210000  0.53500000  1
  N  N634  1  0.76480000  0.40510000  0.43070000  1
  N  N635  1  0.56380000  0.02740000  0.23620000  1
  N  N636  1  0.36670000  0.36010000  0.04440000  1
  N  N637  1  0.49570000  0.60550000  0.17460000  1
  N  N638  1  0.47440000  0.89030000  0.15510000  1
  N  N639  1  0.95350000  0.90580000  0.63770000  1
  N  N640  1  0.60200000  0.63260000  0.29100000  1
  N  N641  1  0.45350000  0.38770000  0.15580000  1
  N  N642  1  0.81670000  0.57120000  0.52830000  1
  N  N643  1  0.70880000  0.48620000  0.42240000  1
  N  N644  1  0.86670000  0.79440000  0.61010000  1
  N  N645  1  0.03140000  0.03370000  0.77590000  1
  N  N646  1  0.53140000  0.52590000  0.28370000  1
  N  N647  1  0.94830000  0.79760000  0.72630000  1
  N  N648  1  0.54290000  0.00450000  0.32120000  1
  N  N649  1  0.10200000  0.04100000  0.88260000  1
  N  N650  1  0.45710000  0.87180000  0.24210000  1
  N  N651  1  0.13330000  0.74340000  0.92770000  1
  N  N652  1  0.05170000  0.77800000  0.84930000  1
  N  N653  1  0.99570000  0.92460000  0.85550000  1
  N  N654  1  0.68430000  0.17770000  0.54440000  1
  N  N655  1  0.54290000  0.78500000  0.41470000  1
  N  N656  1  0.76810000  0.20230000  0.65580000  1
  N  N657  1  0.52560000  0.68070000  0.41590000  1
  N  N658  1  0.02560000  0.16590000  0.93070000  1
  N  N659  1  0.04650000  0.68420000  0.95230000  1
  N  N660  1  0.00430000  0.85980000  0.92890000  1
  N  N661  1  0.57130000  0.09930000  0.54760000  1
  N  N662  1  0.93620000  0.21360000  0.92240000  1
  N  N663  1  0.04290000  0.16470000  0.03500000  1
  O  O664  1  0.58690000  0.86750000  0.58780000  1
  O  O665  1  0.87240000  0.50840000  0.87380000  1
  O  O666  1  0.82370000  0.10470000  0.82560000  1
  O  O667  1  0.12670000  0.48240000  0.13370000  1
  O  O668  1  0.83750000  0.62110000  0.84580000  1
  O  O669  1  0.36540000  0.50140000  0.37380000  1
  O  O670  1  0.65900000  0.32080000  0.67220000  1
  O  O671  1  0.09460000  0.83550000  0.11010000  1
  O  O672  1  0.22930000  0.07150000  0.24840000  1
  O  O673  1  0.65710000  0.13170000  0.67800000  1
  O  O674  1  0.35910000  0.99670000  0.38040000  1
  O  O675  1  0.90370000  0.09870000  0.92680000  1
  O  O676  1  0.61990000  0.81700000  0.64630000  1
  O  O677  1  0.25180000  0.34520000  0.28080000  1
  O  O678  1  0.71870000  0.58230000  0.74820000  1
  O  O679  1  0.08690000  0.33780000  0.11750000  1
  O  O680  1  0.24820000  0.84340000  0.27900000  1
  O  O681  1  0.32370000  0.57560000  0.35470000  1
  O  O682  1  0.72470000  0.09580000  0.75830000  1
  O  O683  1  0.39950000  0.11090000  0.44000000  1
  O  O684  1  0.60770000  0.42210000  0.65500000  1
  O  O685  1  0.13090000  0.80920000  0.19230000  1
  O  O686  1  0.73290000  0.90500000  0.79730000  1
  O  O687  1  0.14460000  0.31400000  0.20980000  1
  O  O688  1  0.77070000  0.01910000  0.84220000  1
  O  O689  1  0.75290000  0.42090000  0.82520000  1
  O  O690  1  0.09570000  0.91800000  0.17090000  1
  O  O691  1  0.77910000  0.53100000  0.85470000  1
  O  O692  1  0.57890000  0.93000000  0.65770000  1
  O  O693  1  0.16590000  0.52950000  0.24820000  1
  O  O694  1  0.65130000  0.38560000  0.73790000  1
  O  O695  1  0.25920000  0.43130000  0.34890000  1
  O  O696  1  0.67690000  0.49840000  0.76910000  1
  O  O697  1  0.27530000  0.03360000  0.37110000  1
  O  O698  1  0.09630000  0.02310000  0.19500000  1
  O  O699  1  0.24080000  0.92210000  0.33970000  1
  O  O700  1  0.07890000  0.40770000  0.18000000  1
  O  O701  1  0.17630000  0.00190000  0.28100000  1
  O  O702  1  0.62670000  0.88370000  0.73240000  1
  O  O703  1  0.60050000  0.04050000  0.71140000  1
  O  O704  1  0.66590000  0.99820000  0.77950000  1
  O  O705  1  0.22470000  0.50830000  0.34580000  1
  O  O706  1  0.13460000  0.88600000  0.25840000  1
  O  O707  1  0.14090000  0.38760000  0.27130000  1
  O  O708  1  0.34290000  0.02090000  0.47460000  1
  O  O709  1  0.67190000  0.44500000  0.84870000  1
  O  O710  1  0.10050000  0.46140000  0.29050000  1
  O  O711  1  0.33200000  0.98180000  0.55400000  1
  O  O712  1  0.15710000  0.42800000  0.38170000  1
  O  O713  1  0.36870000  0.93080000  0.63150000  1
  O  O714  1  0.75770000  0.45520000  0.02190000  1
  O  O715  1  0.93330000  0.94750000  0.20520000  1
  O  O716  1  0.16800000  0.39980000  0.47200000  1
  O  O717  1  0.83090000  0.95390000  0.13640000  1
  O  O718  1  0.38310000  0.56140000  0.69230000  1
  O  O719  1  0.35660000  0.44840000  0.66840000  1
  O  O720  1  0.86870000  0.38150000  0.18080000  1
  O  O721  1  0.85540000  0.06520000  0.16940000  1
  O  O722  1  0.82930000  0.52640000  0.14630000  1
  O  O723  1  0.79120000  0.41120000  0.11000000  1
  O  O724  1  0.34100000  0.01320000  0.66180000  1
  O  O725  1  0.25470000  0.40550000  0.57920000  1
  O  O726  1  0.24530000  0.90080000  0.57450000  1
  O  O727  1  0.89150000  0.49510000  0.22540000  1
  O  O728  1  0.27460000  0.51550000  0.61010000  1
  O  O729  1  0.91310000  0.03060000  0.25090000  1
  O  O730  1  0.72000000  0.91840000  0.06180000  1
  O  O731  1  0.43560000  0.53080000  0.77900000  1
  O  O732  1  0.74820000  0.02900000  0.09340000  1
  O  O733  1  0.39150000  0.97540000  0.74510000  1
  O  O734  1  0.80120000  0.87000000  0.16120000  1
  O  O735  1  0.22540000  0.99090000  0.58550000  1
  O  O736  1  0.72030000  0.50090000  0.08780000  1
  O  O737  1  0.29120000  0.86000000  0.66120000  1
  O  O738  1  0.68250000  0.38640000  0.05550000  1
  O  O739  1  0.13130000  0.31210000  0.51280000  1
  O  O740  1  0.84870000  0.60570000  0.23240000  1
  O  O741  1  0.34870000  0.08660000  0.73430000  1
  O  O742  1  0.37240000  0.62380000  0.75840000  1
  O  O743  1  0.31750000  0.37300000  0.70390000  1
  O  O744  1  0.85910000  0.13040000  0.24670000  1
  O  O745  1  0.88010000  0.94710000  0.27640000  1
  O  O746  1  0.83200000  0.30400000  0.23180000  1
  O  O747  1  0.67370000  0.82920000  0.07450000  1
  O  O748  1  0.89230000  0.56440000  0.29730000  1
  O  O749  1  0.74530000  0.32450000  0.15080000  1
  O  O750  1  0.92110000  0.10110000  0.32880000  1
  O  O751  1  0.20880000  0.31880000  0.62000000  1
  O  O752  1  0.15900000  0.42220000  0.57080000  1
  O  O753  1  0.25290000  0.57520000  0.67090000  1
  O  O754  1  0.14340000  0.84180000  0.56180000  1
  O  O755  1  0.39580000  0.45980000  0.81520000  1
  O  O756  1  0.24710000  0.07230000  0.66800000  1
  O  O757  1  0.41760000  0.59890000  0.83970000  1
  O  O758  1  0.39230000  0.04730000  0.81440000  1
  O  O759  1  0.84100000  0.41180000  0.26320000  1
  O  O760  1  0.84290000  0.22460000  0.27090000  1
  O  O761  1  0.63090000  0.94230000  0.05920000  1
  O  O762  1  0.72770000  0.57880000  0.15770000  1
  O  O763  1  0.70070000  0.76280000  0.13150000  1
  O  O764  1  0.74080000  0.08970000  0.17210000  1
  O  O765  1  0.11690000  0.92830000  0.55920000  1
  O  O766  1  0.32810000  0.17680000  0.77310000  1
  O  O767  1  0.32930000  0.89630000  0.77640000  1
  O  O768  1  0.25770000  0.77190000  0.70520000  1
  O  O769  1  0.64340000  0.31180000  0.09180000  1
  O  O770  1  0.18250000  0.80550000  0.63640000  1
  O  O771  1  0.24230000  0.26420000  0.69750000  1
  O  O772  1  0.60420000  0.41940000  0.06400000  1
  O  O773  1  0.89950000  0.19000000  0.36090000  1
  O  O774  1  0.76970000  0.85360000  0.24510000  1
  O  O775  1  0.57220000  0.72200000  0.05400000  1
  O  O776  1  0.87330000  0.00700000  0.35570000  1
  O  O777  1  0.15130000  0.48790000  0.63560000  1
  O  O778  1  0.84870000  0.48430000  0.33660000  1
  O  O779  1  0.59460000  0.86010000  0.08550000  1
  O  O780  1  0.10850000  0.33390000  0.60360000  1
  O  O781  1  0.38370000  0.52130000  0.88040000  1
  O  O782  1  0.78130000  0.61360000  0.27950000  1
  O  O783  1  0.32310000  0.09220000  0.82150000  1
  O  O784  1  0.27970000  0.36750000  0.78060000  1
  O  O785  1  0.63460000  0.00840000  0.13600000  1
  O  O786  1  0.27910000  0.60470000  0.78100000  1
  O  O787  1  0.34870000  0.98240000  0.85570000  1
  O  O788  1  0.77530000  0.12110000  0.28360000  1
  O  O789  1  0.12760000  0.00140000  0.63600000  1
  O  O790  1  0.64860000  0.82080000  0.16180000  1
  O  O791  1  0.72540000  0.33550000  0.24090000  1
  O  O792  1  0.82310000  0.57150000  0.34220000  1
  O  O793  1  0.45370000  0.63170000  0.97460000  1
  O  O794  1  0.61630000  0.49670000  0.13760000  1
  O  O795  1  0.17190000  0.59870000  0.69500000  1
  O  O796  1  0.17070000  0.31700000  0.69710000  1
  O  O797  1  0.06440000  0.84520000  0.59340000  1
  O  O798  1  0.83410000  0.08230000  0.36360000  1
  O  O799  1  0.22030000  0.83780000  0.75090000  1
  O  O800  1  0.56440000  0.34340000  0.09520000  1
  O  O801  1  0.22090000  0.07560000  0.75190000  1
  O  O802  1  0.33750000  0.59580000  0.87110000  1
  O  O803  1  0.67090000  0.61090000  0.21140000  1
  O  O804  1  0.76710000  0.92210000  0.31440000  1
  O  O805  1  0.61690000  0.30920000  0.17830000  1
  O  O806  1  0.10770000  0.40500000  0.67210000  1
  O  O807  1  0.10420000  0.81400000  0.66940000  1
  O  O808  1  0.17690000  0.51910000  0.74840000  1
  O  O809  1  0.59570000  0.92090000  0.16800000  1
  O  O810  1  0.74710000  0.41800000  0.32230000  1
  O  O811  1  0.67630000  0.03100000  0.25190000  1
  O  O812  1  0.27230000  0.43000000  0.85110000  1
  O  O813  1  0.28130000  0.02950000  0.86360000  1
  O  O814  1  0.64770000  0.88560000  0.23430000  1
  O  O815  1  0.08240000  0.93130000  0.67210000  1
  O  O816  1  0.72930000  0.99840000  0.32150000  1
  O  O817  1  0.66250000  0.53360000  0.25830000  1
  O  O818  1  0.82810000  0.52310000  0.42680000  1
  O  O819  1  0.58240000  0.42210000  0.18130000  1
  O  O820  1  0.22770000  0.90770000  0.82880000  1
  O  O821  1  0.72090000  0.50190000  0.32560000  1
  O  O822  1  0.15130000  0.38370000  0.75700000  1
  O  O823  1  0.32910000  0.54050000  0.94000000  1
  O  O824  1  0.21870000  0.49820000  0.83230000  1
  O  O825  1  0.16250000  0.00830000  0.78360000  1
  O  O826  1  0.62760000  0.38600000  0.25140000  1
  O  O827  1  0.11630000  0.88760000  0.74670000  1
  O  O828  1  0.54630000  0.52090000  0.17800000  1
  O  O829  1  0.59630000  0.94500000  0.27310000  1
  O  O830  1  0.17090000  0.96140000  0.86090000  1
  O  O831  1  0.42780000  0.48180000  0.14980000  1
  O  O832  1  0.04630000  0.92800000  0.77090000  1
  O  O833  1  0.29930000  0.43080000  0.06210000  1
  O  O834  1  0.43330000  0.95520000  0.19750000  1
  O  O835  1  0.74230000  0.44750000  0.51420000  1
  O  O836  1  0.92780000  0.89980000  0.73180000  1
  O  O837  1  0.81750000  0.45390000  0.62300000  1
  O  O838  1  0.86910000  0.06140000  0.67830000  1
  O  O839  1  0.78000000  0.94840000  0.59180000  1
  O  O840  1  0.20070000  0.88150000  0.01280000  1
  O  O841  1  0.89580000  0.56520000  0.70980000  1
  O  O842  1  0.38010000  0.02640000  0.19710000  1
  O  O843  1  0.30120000  0.91120000  0.12000000  1
  O  O844  1  0.35140000  0.51320000  0.17220000  1
  O  O845  1  0.82630000  0.90550000  0.65080000  1
  O  O846  1  0.32630000  0.40080000  0.15550000  1
  O  O847  1  0.26970000  0.99510000  0.10360000  1
  O  O848  1  0.90540000  0.01550000  0.74090000  1
  O  O849  1  0.77970000  0.53060000  0.61750000  1
  O  O850  1  0.85660000  0.41840000  0.69840000  1
  O  O851  1  0.75180000  0.03080000  0.59520000  1
  O  O852  1  0.93560000  0.52900000  0.78080000  1
  O  O853  1  0.23030000  0.47540000  0.08390000  1
  O  O854  1  0.70880000  0.37000000  0.56880000  1
  O  O855  1  0.40540000  0.49090000  0.26550000  1
  O  O856  1  0.41310000  0.00090000  0.28060000  1
  O  O857  1  0.19880000  0.36000000  0.06880000  1
  O  O858  1  0.33090000  0.88640000  0.20390000  1
  O  O859  1  0.79930000  0.81210000  0.68080000  1
  O  O860  1  0.37330000  0.10570000  0.25700000  1
  O  O861  1  0.35230000  0.58660000  0.23790000  1
  O  O862  1  0.86540000  0.12380000  0.75140000  1
  O  O863  1  0.66910000  0.87300000  0.55550000  1
  O  O864  1  0.88370000  0.63040000  0.77130000  1
  O  O865  1  0.67070000  0.44710000  0.56700000  1
  O  O866  1  0.07220000  0.80400000  0.97200000  1
  O  O867  1  0.75470000  0.32920000  0.65550000  1
  O  O868  1  0.26710000  0.06440000  0.17210000  1
  O  O869  1  0.17370000  0.82450000  0.07920000  1
  O  O870  1  0.77230000  0.60110000  0.68000000  1
  O  O871  1  0.69880000  0.81880000  0.61000000  1
  O  O872  1  0.85140000  0.92220000  0.76320000  1
  O  O873  1  0.90430000  0.07520000  0.82230000  1
  O  O874  1  0.28000000  0.34180000  0.19840000  1
  O  O875  1  0.64460000  0.95980000  0.56400000  1
  O  O876  1  0.40430000  0.57230000  0.32520000  1
  O  O877  1  0.75920000  0.09890000  0.68130000  1
  O  O878  1  0.23290000  0.54730000  0.15500000  1
  O  O879  1  0.14860000  0.91180000  0.07080000  1
  O  O880  1  0.95370000  0.72460000  0.88170000  1
  O  O881  1  0.88310000  0.44230000  0.81140000  1
  O  O882  1  0.42110000  0.07880000  0.35110000  1
  O  O883  1  0.63130000  0.26280000  0.56210000  1
  O  O884  1  0.91760000  0.58970000  0.84890000  1
  O  O885  1  0.36910000  0.42830000  0.31140000  1
  O  O886  1  0.40370000  0.67680000  0.34870000  1
  O  O887  1  0.11990000  0.39630000  0.06700000  1
  O  O888  1  0.06670000  0.27190000  0.01420000  1
  O  O889  1  0.22000000  0.81180000  0.16840000  1
  O  O890  1  0.16910000  0.30550000  0.12300000  1
  O  O891  1  0.56670000  0.76420000  0.52190000  1
  O  O892  1  0.35540000  0.91940000  0.31520000  1
  O  O893  1  0.82910000  0.69000000  0.79050000  1
  O  O894  1  0.60850000  0.35360000  0.58390000  1
  O  O895  1  0.66800000  0.22200000  0.64980000  1
  O  O896  1  0.65130000  0.50700000  0.63370000  1
  O  O897  1  0.85230000  0.98790000  0.83660000  1
  O  O898  1  0.14770000  0.98430000  0.13560000  1
  O  O899  1  0.77460000  0.36010000  0.76550000  1
  O  O900  1  0.73030000  0.83390000  0.72540000  1
  O  O901  1  0.64090000  0.02130000  0.63760000  1
  O  O902  1  0.33410000  0.11360000  0.33230000  1
  O  O903  1  0.27070000  0.59220000  0.26910000  1
