# generated using pymatgen
data_Cu3H37C52N6(O4F9)3
_symmetry_space_group_name_H-M   'P 1'
_cell_length_a   15.63990000
_cell_length_b   17.98430000
_cell_length_c   31.77422953
_cell_angle_alpha   95.67417679
_cell_angle_beta   104.24791988
_cell_angle_gamma   90.00000000
_symmetry_Int_Tables_number   1
_chemical_formula_structural   Cu3H37C52N6(O4F9)3
_chemical_formula_sum   'Cu12 H148 C208 N24 O48 F108'
_cell_volume   8617.12430127
_cell_formula_units_Z   4
loop_
 _symmetry_equiv_pos_site_id
 _symmetry_equiv_pos_as_xyz
  1  'x, y, z'
loop_
 _atom_site_type_symbol
 _atom_site_label
 _atom_site_symmetry_multiplicity
 _atom_site_fract_x
 _atom_site_fract_y
 _atom_site_fract_z
 _atom_site_occupancy
  Cu  Cu0  1  0.00000000  0.00000000  0.00000000  1
  Cu  Cu1  1  1.00000000  0.50000000  1.00000000  1
  Cu  Cu2  1  0.51261000  0.36467000  0.41424000  1
  Cu  Cu3  1  0.78901000  0.47612000  0.68938000  1
  Cu  Cu4  1  0.90037000  0.97612000  0.68938000  1
  Cu  Cu5  1  0.25296000  0.75000000  1.00000000  1
  Cu  Cu6  1  0.90163000  0.86467000  0.41424000  1
  Cu  Cu7  1  0.09837000  0.13533000  0.58576000  1
  Cu  Cu8  1  0.74704000  0.25000000  1.00000000  1
  Cu  Cu9  1  0.09963000  0.02388000  0.31062000  1
  Cu  Cu10  1  0.21099000  0.52388000  0.31062000  1
  Cu  Cu11  1  0.48739000  0.63533000  0.58576000  1
  H  H12  1  0.69720000  0.24870000  0.67980000  1
  H  H13  1  0.87660000  0.58920000  0.84860000  1
  H  H14  1  0.37460000  0.43690000  0.34580000  1
  H  H15  1  0.26800000  0.80090000  0.23500000  1
  H  H16  1  0.93960000  0.04050000  0.90580000  1
  H  H17  1  0.30850000  0.03900000  0.24880000  1
  H  H18  1  0.96620000  0.54050000  0.90580000  1
  H  H19  1  0.22760000  0.48350000  0.16660000  1
  H  H20  1  0.28310000  0.52680000  0.21000000  1
  H  H21  1  0.61010000  0.59260000  0.53280000  1
  H  H22  1  0.23710000  0.34050000  0.15640000  1
  H  H23  1  0.56440000  0.98260000  0.48340000  1
  H  H24  1  0.45560000  0.13920000  0.35760000  1
  H  H25  1  0.26530000  0.81740000  0.16380000  1
  H  H26  1  0.29760000  0.30040000  0.19400000  1
  H  H27  1  0.84230000  0.15830000  0.73440000  1
  H  H28  1  0.37850000  0.46090000  0.26640000  1
  H  H29  1  0.13550000  0.61890000  0.01220000  1
  H  H30  1  0.97200000  0.08920000  0.84860000  1
  H  H31  1  0.21730000  0.78650000  0.09340000  1
  H  H32  1  0.67020000  0.01340000  0.54600000  1
  H  H33  1  0.38640000  0.37390000  0.25980000  1
  H  H34  1  0.12330000  0.88110000  0.98780000  1
  H  H35  1  0.62250000  0.50650000  0.47700000  1
  H  H36  1  0.33060000  0.49050000  0.17540000  1
  H  H37  1  0.89210000  0.65830000  0.73440000  1
  H  H38  1  0.19090000  0.17950000  0.02380000  1
  H  H39  1  0.34000000  0.34790000  0.16520000  1
  H  H40  1  0.59970000  0.95590000  0.41720000  1
  H  H41  1  0.16710000  0.32050000  0.97620000  1
  H  H42  1  0.79410000  0.97870000  0.59940000  1
  H  H43  1  0.42690000  0.42480000  0.23200000  1
  H  H44  1  0.53080000  0.42490000  0.32640000  1
  H  H45  1  0.80530000  0.47870000  0.59940000  1
  H  H46  1  0.53840000  0.51230000  0.32960000  1
  H  H47  1  0.12390000  0.71350000  0.90660000  1
  H  H48  1  0.06100000  0.01650000  0.83340000  1
  H  H49  1  0.60430000  0.03350000  0.37240000  1
  H  H50  1  0.08070000  0.15950000  0.84360000  1
  H  H51  1  0.60500000  0.88980000  0.36420000  1
  H  H52  1  0.10150000  0.68260000  0.83620000  1
  H  H53  1  0.03300000  0.69910000  0.76500000  1
  H  H54  1  0.57270000  0.46340000  0.29380000  1
  H  H55  1  0.60620000  0.03520000  0.32340000  1
  H  H56  1  0.07310000  0.97320000  0.79000000  1
  H  H57  1  0.60580000  0.88960000  0.31500000  1
  H  H58  1  0.10360000  0.19960000  0.80600000  1
  H  H59  1  0.98260000  0.74870000  0.67980000  1
  H  H60  1  0.05970000  0.46100000  0.75120000  1
  H  H61  1  0.66620000  0.35000000  0.34680000  1
  H  H62  1  0.67990000  0.07780000  0.36040000  1
  H  H63  1  0.68050000  0.57780000  0.36040000  1
  H  H64  1  0.87580000  0.51340000  0.54600000  1
  H  H65  1  0.15520000  0.00950000  0.82460000  1
  H  H66  1  0.68060000  0.85000000  0.34680000  1
  H  H67  1  0.17480000  0.15210000  0.83480000  1
  H  H68  1  0.02880000  0.06310000  0.65420000  1
  H  H69  1  0.85450000  0.00650000  0.47700000  1
  H  H70  1  0.11210000  0.03910000  0.73360000  1
  H  H71  1  0.12660000  0.12610000  0.74020000  1
  H  H72  1  0.92270000  0.09260000  0.53280000  1
  H  H73  1  0.71720000  0.53520000  0.32340000  1
  H  H74  1  0.70920000  0.38960000  0.31500000  1
  H  H75  1  0.75920000  0.38980000  0.36420000  1
  H  H76  1  0.76810000  0.53350000  0.37240000  1
  H  H77  1  0.44960000  0.60090000  0.05260000  1
  H  H78  1  0.81750000  0.45590000  0.41720000  1
  H  H79  1  0.19490000  0.07520000  0.76800000  1
  H  H80  1  0.72110000  0.96340000  0.29380000  1
  H  H81  1  0.91900000  0.48260000  0.48340000  1
  H  H82  1  0.39700000  0.89910000  0.94740000  1
  H  H83  1  0.09800000  0.36080000  0.64240000  1
  H  H84  1  0.79120000  0.01230000  0.32960000  1
  H  H85  1  0.79560000  0.92490000  0.32640000  1
  H  H86  1  0.20440000  0.07510000  0.67360000  1
  H  H87  1  0.20880000  0.98770000  0.67040000  1
  H  H88  1  0.90200000  0.63920000  0.35760000  1
  H  H89  1  0.60300000  0.10090000  0.05260000  1
  H  H90  1  0.08100000  0.51740000  0.51660000  1
  H  H91  1  0.27890000  0.03660000  0.70620000  1
  H  H92  1  0.80510000  0.92480000  0.23200000  1
  H  H93  1  0.18250000  0.54410000  0.58280000  1
  H  H94  1  0.55040000  0.39910000  0.94740000  1
  H  H95  1  0.23190000  0.46650000  0.62760000  1
  H  H96  1  0.24080000  0.61020000  0.63580000  1
  H  H97  1  0.29080000  0.61040000  0.68500000  1
  H  H98  1  0.28280000  0.46480000  0.67660000  1
  H  H99  1  0.07730000  0.90740000  0.46720000  1
  H  H100  1  0.87340000  0.87390000  0.25980000  1
  H  H101  1  0.88790000  0.96090000  0.26640000  1
  H  H102  1  0.14550000  0.99350000  0.52300000  1
  H  H103  1  0.97120000  0.93690000  0.34580000  1
  H  H104  1  0.82520000  0.84790000  0.16520000  1
  H  H105  1  0.31940000  0.15000000  0.65320000  1
  H  H106  1  0.84480000  0.99050000  0.17540000  1
  H  H107  1  0.12420000  0.48660000  0.45400000  1
  H  H108  1  0.31950000  0.42220000  0.63960000  1
  H  H109  1  0.32010000  0.92220000  0.63960000  1
  H  H110  1  0.33380000  0.65000000  0.65320000  1
  H  H111  1  0.94030000  0.53900000  0.24880000  1
  H  H112  1  0.01740000  0.25130000  0.32020000  1
  H  H113  1  0.89640000  0.80040000  0.19400000  1
  H  H114  1  0.39420000  0.11040000  0.68500000  1
  H  H115  1  0.92690000  0.02680000  0.21000000  1
  H  H116  1  0.39380000  0.96480000  0.67660000  1
  H  H117  1  0.42730000  0.53660000  0.70620000  1
  H  H118  1  0.96700000  0.30090000  0.23500000  1
  H  H119  1  0.89850000  0.31740000  0.16380000  1
  H  H120  1  0.39500000  0.11020000  0.63580000  1
  H  H121  1  0.91930000  0.84050000  0.15640000  1
  H  H122  1  0.39570000  0.96650000  0.62760000  1
  H  H123  1  0.93900000  0.98350000  0.16660000  1
  H  H124  1  0.87610000  0.28650000  0.09340000  1
  H  H125  1  0.46160000  0.48770000  0.67040000  1
  H  H126  1  0.19470000  0.52130000  0.40060000  1
  H  H127  1  0.46920000  0.57510000  0.67360000  1
  H  H128  1  0.57310000  0.57520000  0.76800000  1
  H  H129  1  0.20590000  0.02130000  0.40060000  1
  H  H130  1  0.83290000  0.67950000  0.02380000  1
  H  H131  1  0.40030000  0.04410000  0.58280000  1
  H  H132  1  0.66000000  0.65210000  0.83480000  1
  H  H133  1  0.80910000  0.82050000  0.97620000  1
  H  H134  1  0.10790000  0.34170000  0.26560000  1
  H  H135  1  0.66940000  0.50950000  0.82460000  1
  H  H136  1  0.37750000  0.49350000  0.52300000  1
  H  H137  1  0.87670000  0.11890000  0.01220000  1
  H  H138  1  0.61360000  0.62610000  0.74020000  1
  H  H139  1  0.32980000  0.98660000  0.45400000  1
  H  H140  1  0.78270000  0.21350000  0.90660000  1
  H  H141  1  0.02800000  0.91080000  0.15140000  1
  H  H142  1  0.86450000  0.38110000  0.98780000  1
  H  H143  1  0.62150000  0.53910000  0.73360000  1
  H  H144  1  0.15770000  0.84170000  0.26560000  1
  H  H145  1  0.70240000  0.69960000  0.80600000  1
  H  H146  1  0.73470000  0.18260000  0.83620000  1
  H  H147  1  0.54440000  0.86080000  0.64240000  1
  H  H148  1  0.43560000  0.01740000  0.51660000  1
  H  H149  1  0.76290000  0.65950000  0.84360000  1
  H  H150  1  0.38990000  0.40740000  0.46720000  1
  H  H151  1  0.71690000  0.47320000  0.79000000  1
  H  H152  1  0.77240000  0.51650000  0.83340000  1
  H  H153  1  0.03380000  0.45950000  0.09420000  1
  H  H154  1  0.69150000  0.96100000  0.75120000  1
  H  H155  1  0.06040000  0.95950000  0.09420000  1
  H  H156  1  0.73200000  0.19910000  0.76500000  1
  H  H157  1  0.62540000  0.56310000  0.65420000  1
  H  H158  1  0.12340000  0.41080000  0.15140000  1
  H  H159  1  0.30280000  0.75130000  0.32020000  1
  C  C160  1  0.26216000  0.03230000  0.26172000  1
  C  C161  1  0.22001000  0.82400000  0.21822000  1
  C  C162  1  0.85475000  0.13480000  0.85010000  1
  C  C163  1  0.57087000  0.84870000  0.56514000  1
  C  C164  1  0.09011000  0.92480000  0.07982000  1
  C  C165  1  0.64827000  0.55550000  0.62974000  1
  C  C166  1  0.72190000  0.00730000  0.70140000  1
  C  C167  1  0.10620000  0.20100000  0.08340000  1
  C  C168  1  0.33505000  0.64620000  0.30730000  1
  C  C169  1  0.83000000  0.89650000  0.79660000  1
  C  C170  1  0.71228000  0.29790000  0.67756000  1
  C  C171  1  0.13942000  0.87210000  0.10324000  1
  C  C172  1  0.45059000  0.21060000  0.40878000  1
  C  C173  1  0.21840000  0.83280000  0.17540000  1
  C  C174  1  0.09751000  0.13620000  0.04842000  1
  C  C175  1  0.36503000  0.95740000  0.31406000  1
  C  C176  1  0.81701000  0.93870000  0.75622000  1
  C  C177  1  0.90878000  0.61080000  0.83176000  1
  C  C178  1  0.63821000  0.57180000  0.55802000  1
  C  C179  1  0.29151000  0.41340000  0.21042000  1
  C  C180  1  0.86934000  0.61900000  0.78768000  1
  C  C181  1  0.84591000  0.15220000  0.76342000  1
  C  C182  1  0.01029000  0.57520000  0.92018000  1
  C  C183  1  0.92298000  0.11080000  0.83176000  1
  C  C184  1  0.45938000  0.18990000  0.36736000  1
  C  C185  1  0.28241000  0.48510000  0.18862000  1
  C  C186  1  0.04909000  0.36380000  0.95158000  1
  C  C187  1  0.18249000  0.82290000  0.07918000  1
  C  C188  1  0.02280000  0.29900000  0.91660000  1
  C  C189  1  0.12724000  0.87850000  0.01728000  1
  C  C190  1  0.29158000  0.34410000  0.17856000  1
  C  C191  1  0.41480000  0.67040000  0.29300000  1
  C  C192  1  0.78231000  0.31100000  0.65882000  1
  C  C193  1  0.10996000  0.62150000  0.98272000  1
  C  C194  1  0.91834000  0.11900000  0.78768000  1
  C  C195  1  0.15139000  0.13920000  0.01958000  1
  C  C196  1  0.37903000  0.41870000  0.24546000  1
  C  C197  1  0.47362000  0.24020000  0.33884000  1
  C  C198  1  0.03618000  0.62790000  0.89676000  1
  C  C199  1  0.62307000  0.98610000  0.48214000  1
  C  C200  1  0.99535000  0.63480000  0.85010000  1
  C  C201  1  0.16423000  0.41460000  0.01506000  1
  C  C202  1  0.13181000  0.36080000  0.98042000  1
  C  C203  1  0.91751000  0.65220000  0.76342000  1
  C  C204  1  0.71333000  0.53110000  0.55846000  1
  C  C205  1  0.75400000  0.50580000  0.59760000  1
  C  C206  1  0.14917000  0.08540000  0.98494000  1
  C  C207  1  0.68580000  0.00540000  0.51960000  1
  C  C208  1  0.96660000  0.39650000  0.79660000  1
  C  C209  1  0.81725000  0.74350000  0.63970000  1
  C  C210  1  0.10331000  0.67710000  0.92082000  1
  C  C211  1  0.82245000  0.24350000  0.63970000  1
  C  C212  1  0.93921000  0.43870000  0.75622000  1
  C  C213  1  0.47869000  0.20980000  0.29398000  1
  C  C214  1  0.64351000  0.97150000  0.44222000  1
  C  C215  1  0.68219000  0.50100000  0.47818000  1
  C  C216  1  0.25722000  0.40420000  0.04344000  1
  C  C217  1  0.87651000  0.81100000  0.65882000  1
  C  C218  1  0.04300000  0.66720000  0.82460000  1
  C  C219  1  0.00179000  0.67600000  0.78178000  1
  C  C220  1  0.74425000  0.51310000  0.51810000  1
  C  C221  1  0.34853000  0.63060000  0.10806000  1
  C  C222  1  0.56630000  0.46650000  0.32320000  1
  C  C223  1  0.84360000  0.00580000  0.59760000  1
  C  C224  1  0.77385000  0.01310000  0.51810000  1
  C  C225  1  0.21378000  0.09580000  0.95656000  1
  C  C226  1  0.00044000  0.46770000  0.73828000  1
  C  C227  1  0.70943000  0.48060000  0.44006000  1
  C  C228  1  0.97950000  0.50730000  0.70140000  1
  C  C229  1  0.34352000  0.65290000  0.06144000  1
  C  C230  1  0.09379000  0.01490000  0.81138000  1
  C  C231  1  0.84513000  0.03110000  0.55846000  1
  C  C232  1  0.96528000  0.79790000  0.67756000  1
  C  C233  1  0.64178000  0.03420000  0.35256000  1
  C  C234  1  0.73063000  0.98060000  0.44006000  1
  C  C235  1  0.08109000  0.08660000  0.78958000  1
  C  C236  1  0.11302000  0.15590000  0.82144000  1
  C  C237  1  0.64192000  0.89170000  0.34424000  1
  C  C238  1  0.65815000  0.46470000  0.35510000  1
  C  C239  1  0.83380000  0.50540000  0.51960000  1
  C  C240  1  0.79599000  0.00100000  0.47818000  1
  C  C241  1  0.02775000  0.85380000  0.69270000  1
  C  C242  1  0.69695000  0.96470000  0.35510000  1
  C  C243  1  0.28208000  0.84710000  0.93856000  1
  C  C244  1  0.24047000  0.86940000  0.89194000  1
  C  C245  1  0.98147000  0.05550000  0.62974000  1
  C  C246  1  0.79871000  0.47150000  0.44222000  1
  C  C247  1  0.70232000  0.39170000  0.34424000  1
  C  C248  1  0.71078000  0.53420000  0.35256000  1
  C  C249  1  0.91981000  0.07180000  0.55802000  1
  C  C250  1  0.40350000  0.62990000  0.03920000  1
  C  C251  1  0.05097000  0.54260000  0.68594000  1
  C  C252  1  0.85907000  0.48610000  0.48214000  1
  C  C253  1  0.13357000  0.08130000  0.75454000  1
  C  C254  1  0.40170000  0.85280000  0.00220000  1
  C  C255  1  0.39950000  0.64720000  0.99780000  1
  C  C256  1  0.36430000  0.87010000  0.96080000  1
  C  C257  1  0.12180000  0.82960000  0.70700000  1
  C  C258  1  0.99427000  0.34870000  0.56514000  1
  C  C259  1  0.75690000  0.96650000  0.32320000  1
  C  C260  1  0.04181000  0.28940000  0.59122000  1
  C  C261  1  0.09202000  0.31010000  0.63264000  1
  C  C262  1  0.13478000  0.25980000  0.66116000  1
  C  C263  1  0.18471000  0.29020000  0.70602000  1
  C  C264  1  0.81529000  0.70980000  0.29398000  1
  C  C265  1  0.86522000  0.74020000  0.33884000  1
  C  C266  1  0.90798000  0.68990000  0.36736000  1
  C  C267  1  0.95819000  0.71060000  0.40878000  1
  C  C268  1  0.24310000  0.03350000  0.67680000  1
  C  C269  1  0.00573000  0.65130000  0.43486000  1
  C  C270  1  0.87820000  0.17040000  0.29300000  1
  C  C271  1  0.63570000  0.12990000  0.03920000  1
  C  C272  1  0.60050000  0.35280000  0.00220000  1
  C  C273  1  0.59830000  0.14720000  0.99780000  1
  C  C274  1  0.86643000  0.91870000  0.24546000  1
  C  C275  1  0.14093000  0.51390000  0.51786000  1
  C  C276  1  0.94903000  0.45740000  0.31406000  1
  C  C277  1  0.59650000  0.37010000  0.96080000  1
  C  C278  1  0.08019000  0.92820000  0.44198000  1
  C  C279  1  0.28922000  0.46580000  0.64744000  1
  C  C280  1  0.29768000  0.60830000  0.65576000  1
  C  C281  1  0.20129000  0.52850000  0.55778000  1
  C  C282  1  0.01853000  0.94450000  0.37026000  1
  C  C283  1  0.75953000  0.13060000  0.10806000  1
  C  C284  1  0.71792000  0.15290000  0.06144000  1
  C  C285  1  0.30305000  0.03530000  0.64490000  1
  C  C286  1  0.97225000  0.14620000  0.30730000  1
  C  C287  1  0.20401000  0.99900000  0.52182000  1
  C  C288  1  0.16620000  0.49460000  0.48040000  1
  C  C289  1  0.34185000  0.53530000  0.64490000  1
  C  C290  1  0.35808000  0.10830000  0.65576000  1
  C  C291  1  0.88698000  0.84410000  0.17856000  1
  C  C292  1  0.91891000  0.91340000  0.21042000  1
  C  C293  1  0.26937000  0.01940000  0.55994000  1
  C  C294  1  0.35822000  0.96580000  0.64744000  1
  C  C295  1  0.03472000  0.20210000  0.32244000  1
  C  C296  1  0.15487000  0.96890000  0.44154000  1
  C  C297  1  0.90621000  0.98510000  0.18862000  1
  C  C298  1  0.65648000  0.34710000  0.93856000  1
  C  C299  1  0.02050000  0.49270000  0.29860000  1
  C  C300  1  0.29057000  0.51940000  0.55994000  1
  C  C301  1  0.99956000  0.53230000  0.26172000  1
  C  C302  1  0.78622000  0.90420000  0.04344000  1
  C  C303  1  0.22615000  0.98690000  0.48190000  1
  C  C304  1  0.15640000  0.99420000  0.40240000  1
  C  C305  1  0.43370000  0.53350000  0.67680000  1
  C  C306  1  0.65147000  0.36940000  0.89194000  1
  C  C307  1  0.25575000  0.48690000  0.48190000  1
  C  C308  1  0.99821000  0.32400000  0.21822000  1
  C  C309  1  0.95700000  0.33280000  0.17540000  1
  C  C310  1  0.12349000  0.18900000  0.34118000  1
  C  C311  1  0.74278000  0.59580000  0.95656000  1
  C  C312  1  0.31781000  0.49900000  0.52182000  1
  C  C313  1  0.35649000  0.02850000  0.55778000  1
  C  C314  1  0.52131000  0.79020000  0.70602000  1
  C  C315  1  0.06079000  0.56130000  0.24378000  1
  C  C316  1  0.17755000  0.75650000  0.36030000  1
  C  C317  1  0.89669000  0.32290000  0.07918000  1
  C  C318  1  0.18275000  0.25650000  0.36030000  1
  C  C319  1  0.03340000  0.60350000  0.20340000  1
  C  C320  1  0.31420000  0.99460000  0.48040000  1
  C  C321  1  0.85083000  0.91460000  0.01506000  1
  C  C322  1  0.24600000  0.49420000  0.40240000  1
  C  C323  1  0.28667000  0.46890000  0.44154000  1
  C  C324  1  0.08249000  0.34780000  0.23658000  1
  C  C325  1  0.86819000  0.63920000  0.01958000  1
  C  C326  1  0.83577000  0.58540000  0.98494000  1
  C  C327  1  0.00465000  0.36520000  0.14990000  1
  C  C328  1  0.37693000  0.01390000  0.51786000  1
  C  C329  1  0.96382000  0.37210000  0.10324000  1
  C  C330  1  0.52638000  0.75980000  0.66116000  1
  C  C331  1  0.62097000  0.58130000  0.75454000  1
  C  C332  1  0.84861000  0.86080000  0.98042000  1
  C  C333  1  0.08166000  0.88100000  0.21232000  1
  C  C334  1  0.89004000  0.37850000  0.01728000  1
  C  C335  1  0.21769000  0.68900000  0.34118000  1
  C  C336  1  0.58520000  0.32960000  0.70700000  1
  C  C337  1  0.70842000  0.65590000  0.82144000  1
  C  C338  1  0.87276000  0.12150000  0.98272000  1
  C  C339  1  0.97720000  0.70100000  0.08340000  1
  C  C340  1  0.81751000  0.17710000  0.92082000  1
  C  C341  1  0.95091000  0.63620000  0.04842000  1
  C  C342  1  0.71759000  0.51490000  0.81138000  1
  C  C343  1  0.54062000  0.81010000  0.63264000  1
  C  C344  1  0.07702000  0.88920000  0.16824000  1
  C  C345  1  0.98971000  0.42480000  0.07982000  1
  C  C346  1  0.15409000  0.84780000  0.23658000  1
  C  C347  1  0.13066000  0.38100000  0.21232000  1
  C  C348  1  0.70849000  0.58660000  0.78958000  1
  C  C349  1  0.36179000  0.42820000  0.44198000  1
  C  C350  1  0.09122000  0.38920000  0.16824000  1
  C  C351  1  0.18299000  0.06130000  0.24378000  1
  C  C352  1  0.63497000  0.04260000  0.68594000  1
  C  C353  1  0.90249000  0.86380000  0.95158000  1
  C  C354  1  0.78160000  0.16720000  0.82460000  1
  C  C355  1  0.54941000  0.78940000  0.59122000  1
  C  C356  1  0.86058000  0.12790000  0.89676000  1
  C  C357  1  0.28772000  0.70210000  0.32244000  1
  C  C358  1  0.17000000  0.10350000  0.20340000  1
  C  C359  1  0.66495000  0.35380000  0.69270000  1
  C  C360  1  0.89380000  0.79900000  0.91660000  1
  C  C361  1  0.27810000  0.99270000  0.29860000  1
  C  C362  1  0.35173000  0.44450000  0.37026000  1
  C  C363  1  0.90989000  0.07520000  0.92018000  1
  C  C364  1  0.42913000  0.15130000  0.43486000  1
  C  C365  1  0.14525000  0.86520000  0.14990000  1
  C  C366  1  0.77999000  0.17600000  0.78178000  1
  C  C367  1  0.73784000  0.96770000  0.73828000  1
  N  N368  1  0.60444000  0.58230000  0.59348000  1
  N  N369  1  0.78141000  0.59400000  0.76742000  1
  N  N370  1  0.08343000  0.92790000  0.03686000  1
  N  N371  1  0.04657000  0.57210000  0.96314000  1
  N  N372  1  0.72305000  0.51840000  0.63350000  1
  N  N373  1  0.17624000  0.82570000  0.03648000  1
  N  N374  1  0.13976000  0.67430000  0.96352000  1
  N  N375  1  0.98601000  0.09400000  0.76742000  1
  N  N376  1  0.64320000  0.46670000  0.40060000  1
  N  N377  1  0.91045000  0.01840000  0.63350000  1
  N  N378  1  0.75740000  0.96670000  0.40060000  1
  N  N379  1  0.98904000  0.08230000  0.59348000  1
  N  N380  1  0.01096000  0.91770000  0.40652000  1
  N  N381  1  0.24260000  0.03330000  0.59940000  1
  N  N382  1  0.08955000  0.98160000  0.36650000  1
  N  N383  1  0.35680000  0.53330000  0.59940000  1
  N  N384  1  0.01399000  0.90600000  0.23258000  1
  N  N385  1  0.86024000  0.32570000  0.03648000  1
  N  N386  1  0.82376000  0.17430000  0.96352000  1
  N  N387  1  0.27695000  0.48160000  0.36650000  1
  N  N388  1  0.95343000  0.42790000  0.03686000  1
  N  N389  1  0.91657000  0.07210000  0.96314000  1
  N  N390  1  0.21859000  0.40600000  0.23258000  1
  N  N391  1  0.39556000  0.41770000  0.40652000  1
  O  O392  1  0.95855000  0.91200000  0.95090000  1
  O  O393  1  0.32378000  0.57650000  0.30496000  1
  O  O394  1  0.45623000  0.27520000  0.42846000  1
  O  O395  1  0.76300000  0.58090000  0.72520000  1
  O  O396  1  0.99235000  0.41200000  0.95090000  1
  O  O397  1  0.77507000  0.01980000  0.67874000  1
  O  O398  1  0.12694000  0.47070000  0.02708000  1
  O  O399  1  0.85625000  0.44070000  0.74350000  1
  O  O400  1  0.09986000  0.02930000  0.97292000  1
  O  O401  1  0.47971000  0.30970000  0.34602000  1
  O  O402  1  0.88725000  0.94070000  0.74350000  1
  O  O403  1  0.56306000  0.45950000  0.40412000  1
  O  O404  1  0.81449000  0.37300000  0.65478000  1
  O  O405  1  0.84029000  0.87300000  0.65478000  1
  O  O406  1  0.90367000  0.51980000  0.67874000  1
  O  O407  1  0.27611000  0.69190000  0.04942000  1
  O  O408  1  0.96220000  0.08090000  0.72520000  1
  O  O409  1  0.22669000  0.80810000  0.95058000  1
  O  O410  1  0.01882000  0.92350000  0.69504000  1
  O  O411  1  0.36728000  0.81840000  0.02616000  1
  O  O412  1  0.34112000  0.68160000  0.97384000  1
  O  O413  1  0.84106000  0.95950000  0.40412000  1
  O  O414  1  0.02777000  0.22480000  0.57154000  1
  O  O415  1  0.13369000  0.19030000  0.65398000  1
  O  O416  1  0.86631000  0.80970000  0.34602000  1
  O  O417  1  0.97223000  0.77520000  0.42846000  1
  O  O418  1  0.15894000  0.04050000  0.59588000  1
  O  O419  1  0.65888000  0.31840000  0.02616000  1
  O  O420  1  0.63272000  0.18160000  0.97384000  1
  O  O421  1  0.98118000  0.07650000  0.30496000  1
  O  O422  1  0.77331000  0.19190000  0.04942000  1
  O  O423  1  0.03780000  0.91910000  0.27480000  1
  O  O424  1  0.72389000  0.30810000  0.95058000  1
  O  O425  1  0.09633000  0.48020000  0.32126000  1
  O  O426  1  0.15971000  0.12700000  0.34522000  1
  O  O427  1  0.18551000  0.62700000  0.34522000  1
  O  O428  1  0.43694000  0.54050000  0.59588000  1
  O  O429  1  0.11275000  0.05930000  0.25650000  1
  O  O430  1  0.52029000  0.69030000  0.65398000  1
  O  O431  1  0.90014000  0.97070000  0.02708000  1
  O  O432  1  0.14375000  0.55930000  0.25650000  1
  O  O433  1  0.87306000  0.52930000  0.97292000  1
  O  O434  1  0.22493000  0.98020000  0.32126000  1
  O  O435  1  0.00765000  0.58800000  0.04910000  1
  O  O436  1  0.23700000  0.41910000  0.27480000  1
  O  O437  1  0.54377000  0.72480000  0.57154000  1
  O  O438  1  0.67622000  0.42350000  0.69504000  1
  O  O439  1  0.04145000  0.08800000  0.04910000  1
  F  F440  1  0.48105000  0.15660000  0.47610000  1
  F  F441  1  0.44150000  0.08130000  0.42020000  1
  F  F442  1  0.81370000  0.82840000  0.78680000  1
  F  F443  1  0.92979000  0.30140000  0.89578000  1
  F  F444  1  0.35880000  0.88800000  0.31960000  1
  F  F445  1  0.23270000  0.08190000  0.18140000  1
  F  F446  1  0.12563000  0.26600000  0.07426000  1
  F  F447  1  0.17460000  0.19070000  0.11800000  1
  F  F448  1  0.96599000  0.80140000  0.89578000  1
  F  F449  1  0.41840000  0.99540000  0.34600000  1
  F  F450  1  0.90600000  0.91680000  0.82660000  1
  F  F451  1  0.74420000  0.75590000  0.66120000  1
  F  F452  1  0.92060000  0.41680000  0.82660000  1
  F  F453  1  0.65160000  0.84420000  0.55660000  1
  F  F454  1  0.39170000  0.21590000  0.26640000  1
  F  F455  1  0.05137000  0.23400000  0.92574000  1
  F  F456  1  0.41560000  0.95650000  0.28360000  1
  F  F457  1  0.41356000  0.73490000  0.27892000  1
  F  F458  1  0.80800000  0.18160000  0.65160000  1
  F  F459  1  0.48940000  0.66360000  0.32780000  1
  F  F460  1  0.28390000  0.61990000  0.11820000  1
  F  F461  1  0.43860000  0.61790000  0.26500000  1
  F  F462  1  0.05660000  0.30930000  0.88200000  1
  F  F463  1  0.97310000  0.32840000  0.78680000  1
  F  F464  1  0.27220000  0.43740000  0.08280000  1
  F  F465  1  0.78690000  0.74050000  0.59520000  1
  F  F466  1  0.84360000  0.68160000  0.65160000  1
  F  F467  1  0.80830000  0.24050000  0.59520000  1
  F  F468  1  0.50247000  0.14210000  0.28874000  1
  F  F469  1  0.05130000  0.41810000  0.81860000  1
  F  F470  1  0.28280000  0.33140000  0.04080000  1
  F  F471  1  0.51720000  0.25430000  0.27360000  1
  F  F472  1  0.38760000  0.69900000  0.13320000  1
  F  F473  1  0.91700000  0.25590000  0.66120000  1
  F  F474  1  0.18940000  0.06260000  0.91720000  1
  F  F475  1  0.24200000  0.16860000  0.95920000  1
  F  F476  1  0.16570000  0.88010000  0.88180000  1
  F  F477  1  0.31450000  0.44550000  0.03040000  1
  F  F478  1  0.40220000  0.57440000  0.11680000  1
  F  F479  1  0.28410000  0.05450000  0.96960000  1
  F  F480  1  0.90500000  0.34420000  0.55660000  1
  F  F481  1  0.03920000  0.61200000  0.68040000  1
  F  F482  1  0.25440000  0.80100000  0.86680000  1
  F  F483  1  0.12530000  0.28410000  0.73360000  1
  F  F484  1  0.28540000  0.92560000  0.88320000  1
  F  F485  1  0.13464000  0.76510000  0.72108000  1
  F  F486  1  0.13200000  0.54350000  0.71640000  1
  F  F487  1  0.07240000  0.50460000  0.65400000  1
  F  F488  1  0.17360000  0.88210000  0.73500000  1
  F  F489  1  0.02130000  0.41870000  0.57980000  1
  F  F490  1  0.00495000  0.34340000  0.52390000  1
  F  F491  1  0.75640000  0.75430000  0.27360000  1
  F  F492  1  0.16160000  0.83640000  0.67220000  1
  F  F493  1  0.78627000  0.64210000  0.28874000  1
  F  F494  1  0.21373000  0.35790000  0.71126000  1
  F  F495  1  0.83840000  0.16360000  0.32780000  1
  F  F496  1  0.24360000  0.24570000  0.72640000  1
  F  F497  1  0.99505000  0.65660000  0.47610000  1
  F  F498  1  0.97870000  0.58130000  0.42020000  1
  F  F499  1  0.82640000  0.11790000  0.26500000  1
  F  F500  1  0.92760000  0.49540000  0.34600000  1
  F  F501  1  0.86800000  0.45650000  0.28360000  1
  F  F502  1  0.86536000  0.23490000  0.27892000  1
  F  F503  1  0.71460000  0.07440000  0.11680000  1
  F  F504  1  0.87470000  0.71590000  0.26640000  1
  F  F505  1  0.74560000  0.19900000  0.13320000  1
  F  F506  1  0.96080000  0.38800000  0.31960000  1
  F  F507  1  0.09500000  0.65580000  0.44340000  1
  F  F508  1  0.71590000  0.94550000  0.03040000  1
  F  F509  1  0.59780000  0.42560000  0.88320000  1
  F  F510  1  0.68550000  0.55450000  0.96960000  1
  F  F511  1  0.83430000  0.11990000  0.11820000  1
  F  F512  1  0.75800000  0.83140000  0.04080000  1
  F  F513  1  0.81060000  0.93740000  0.08280000  1
  F  F514  1  0.08300000  0.74410000  0.33880000  1
  F  F515  1  0.61240000  0.30100000  0.86680000  1
  F  F516  1  0.48280000  0.74570000  0.72640000  1
  F  F517  1  0.71720000  0.66860000  0.95920000  1
  F  F518  1  0.94870000  0.58190000  0.18140000  1
  F  F519  1  0.49753000  0.85790000  0.71126000  1
  F  F520  1  0.19170000  0.75950000  0.40480000  1
  F  F521  1  0.15640000  0.31840000  0.34840000  1
  F  F522  1  0.21310000  0.25950000  0.40480000  1
  F  F523  1  0.72780000  0.56260000  0.91720000  1
  F  F524  1  0.02690000  0.67160000  0.21320000  1
  F  F525  1  0.94340000  0.69070000  0.11800000  1
  F  F526  1  0.56140000  0.38210000  0.73500000  1
  F  F527  1  0.71610000  0.38010000  0.88180000  1
  F  F528  1  0.51060000  0.33640000  0.67220000  1
  F  F529  1  0.19200000  0.81840000  0.34840000  1
  F  F530  1  0.58644000  0.26510000  0.72108000  1
  F  F531  1  0.58440000  0.04350000  0.71640000  1
  F  F532  1  0.94863000  0.76600000  0.07426000  1
  F  F533  1  0.60830000  0.78410000  0.73360000  1
  F  F534  1  0.34840000  0.15580000  0.44340000  1
  F  F535  1  0.07940000  0.58320000  0.17340000  1
  F  F536  1  0.25580000  0.24410000  0.33880000  1
  F  F537  1  0.09400000  0.08320000  0.17340000  1
  F  F538  1  0.58160000  0.00460000  0.65400000  1
  F  F539  1  0.03401000  0.19860000  0.10422000  1
  F  F540  1  0.82540000  0.80930000  0.88200000  1
  F  F541  1  0.87437000  0.73400000  0.92574000  1
  F  F542  1  0.76730000  0.91810000  0.81860000  1
  F  F543  1  0.64120000  0.11200000  0.68040000  1
  F  F544  1  0.07021000  0.69860000  0.10422000  1
  F  F545  1  0.18630000  0.17160000  0.21320000  1
  F  F546  1  0.55850000  0.91870000  0.57980000  1
  F  F547  1  0.51895000  0.84340000  0.52390000  1
