# generated using pymatgen
data_CdH46(C21O4)2
_symmetry_space_group_name_H-M   'P 1'
_cell_length_a   15.55000000
_cell_length_b   24.92100000
_cell_length_c   25.28200000
_cell_angle_alpha   90.00000000
_cell_angle_beta   90.00500000
_cell_angle_gamma   90.00000000
_symmetry_Int_Tables_number   1
_chemical_formula_structural   CdH46(C21O4)2
_chemical_formula_sum   'Cd8 H368 C336 O64'
_cell_volume   9797.31978979
_cell_formula_units_Z   8
loop_
 _symmetry_equiv_pos_site_id
 _symmetry_equiv_pos_as_xyz
  1  'x, y, z'
loop_
 _atom_site_type_symbol
 _atom_site_label
 _atom_site_symmetry_multiplicity
 _atom_site_fract_x
 _atom_site_fract_y
 _atom_site_fract_z
 _atom_site_occupancy
  Cd  Cd0  1  0.06843000  0.55258000  0.58414000  1
  Cd  Cd1  1  0.06843000  0.94742000  0.08414000  1
  Cd  Cd2  1  0.15318000  0.00752000  0.95733000  1
  Cd  Cd3  1  0.15318000  0.49248000  0.45733000  1
  Cd  Cd4  1  0.84682000  0.50752000  0.54267000  1
  Cd  Cd5  1  0.84682000  0.99248000  0.04267000  1
  Cd  Cd6  1  0.93157000  0.05258000  0.91586000  1
  Cd  Cd7  1  0.93157000  0.44742000  0.41586000  1
  H  H8  1  0.00360000  0.59470000  0.88590000  1
  H  H9  1  0.00360000  0.90530000  0.38590000  1
  H  H10  1  0.01320000  0.52850000  0.07730000  1
  H  H11  1  0.01320000  0.97150000  0.57730000  1
  H  H12  1  0.01580000  0.67310000  0.54370000  1
  H  H13  1  0.01580000  0.82690000  0.04370000  1
  H  H14  1  0.04440000  0.57880000  0.94190000  1
  H  H15  1  0.04440000  0.92120000  0.44190000  1
  H  H16  1  0.04510000  0.16250000  0.51120000  1
  H  H17  1  0.04510000  0.33750000  0.01120000  1
  H  H18  1  0.04650000  0.10300000  0.48670000  1
  H  H19  1  0.04650000  0.39700000  0.98670000  1
  H  H20  1  0.05810000  0.00240000  0.62580000  1
  H  H21  1  0.05810000  0.49760000  0.12580000  1
  H  H22  1  0.06640000  0.69410000  0.02270000  1
  H  H23  1  0.06640000  0.80590000  0.52270000  1
  H  H24  1  0.06960000  0.02920000  0.18100000  1
  H  H25  1  0.06960000  0.47080000  0.68100000  1
  H  H26  1  0.09120000  0.52550000  0.84570000  1
  H  H27  1  0.09120000  0.97450000  0.34570000  1
  H  H28  1  0.09770000  0.71930000  0.63560000  1
  H  H29  1  0.09770000  0.78070000  0.13560000  1
  H  H30  1  0.10420000  0.60300000  0.89620000  1
  H  H31  1  0.10420000  0.89700000  0.39620000  1
  H  H32  1  0.10820000  0.74780000  0.53180000  1
  H  H33  1  0.10820000  0.75220000  0.03180000  1
  H  H34  1  0.12040000  0.50750000  0.90360000  1
  H  H35  1  0.12040000  0.99250000  0.40360000  1
  H  H36  1  0.12820000  0.13660000  0.20880000  1
  H  H37  1  0.12820000  0.36340000  0.70880000  1
  H  H38  1  0.13210000  0.06980000  0.56000000  1
  H  H39  1  0.13210000  0.43020000  0.06000000  1
  H  H40  1  0.13300000  0.12790000  0.58710000  1
  H  H41  1  0.13300000  0.37210000  0.08710000  1
  H  H42  1  0.13550000  0.74720000  0.71960000  1
  H  H43  1  0.13550000  0.75280000  0.21960000  1
  H  H44  1  0.15150000  0.22650000  0.22350000  1
  H  H45  1  0.15150000  0.27350000  0.72350000  1
  H  H46  1  0.15440000  0.55580000  0.14130000  1
  H  H47  1  0.15440000  0.94420000  0.64130000  1
  H  H48  1  0.16270000  0.66220000  0.23590000  1
  H  H49  1  0.16270000  0.83780000  0.73590000  1
  H  H50  1  0.16310000  0.03100000  0.30370000  1
  H  H51  1  0.16310000  0.46900000  0.80370000  1
  H  H52  1  0.17970000  0.54830000  0.27610000  1
  H  H53  1  0.17970000  0.95170000  0.77610000  1
  H  H54  1  0.18380000  0.03830000  0.24200000  1
  H  H55  1  0.18380000  0.46170000  0.74200000  1
  H  H56  1  0.18630000  0.64030000  0.00410000  1
  H  H57  1  0.18630000  0.85970000  0.50410000  1
  H  H58  1  0.19840000  0.16530000  0.51030000  1
  H  H59  1  0.19840000  0.33470000  0.01030000  1
  H  H60  1  0.19850000  0.60570000  0.41120000  1
  H  H61  1  0.19850000  0.89430000  0.91120000  1
  H  H62  1  0.19900000  0.24230000  0.80470000  1
  H  H63  1  0.19900000  0.25770000  0.30470000  1
  H  H64  1  0.20160000  0.10700000  0.48320000  1
  H  H65  1  0.20160000  0.39300000  0.98320000  1
  H  H66  1  0.20290000  0.54890000  0.99180000  1
  H  H67  1  0.20290000  0.95110000  0.49180000  1
  H  H68  1  0.20730000  0.65090000  0.83200000  1
  H  H69  1  0.20730000  0.84910000  0.33200000  1
  H  H70  1  0.21060000  0.12680000  0.03790000  1
  H  H71  1  0.21060000  0.37320000  0.53790000  1
  H  H72  1  0.21950000  0.57200000  0.18770000  1
  H  H73  1  0.21950000  0.92800000  0.68770000  1
  H  H74  1  0.22160000  0.09710000  0.57610000  1
  H  H75  1  0.22160000  0.40290000  0.07610000  1
  H  H76  1  0.22940000  0.18970000  0.90440000  1
  H  H77  1  0.22940000  0.31030000  0.40440000  1
  H  H78  1  0.23910000  0.54040000  0.05100000  1
  H  H79  1  0.23910000  0.95960000  0.55100000  1
  H  H80  1  0.23990000  0.63360000  0.32360000  1
  H  H81  1  0.23990000  0.86640000  0.82360000  1
  H  H82  1  0.24020000  0.60280000  0.86880000  1
  H  H83  1  0.24020000  0.89720000  0.36880000  1
  H  H84  1  0.24630000  0.64040000  0.05540000  1
  H  H85  1  0.24630000  0.85960000  0.55540000  1
  H  H86  1  0.24900000  0.22190000  0.02550000  1
  H  H87  1  0.24900000  0.27810000  0.52550000  1
  H  H88  1  0.25190000  0.17250000  0.41640000  1
  H  H89  1  0.25190000  0.32750000  0.91640000  1
  H  H90  1  0.26550000  0.69310000  0.53940000  1
  H  H91  1  0.26550000  0.80690000  0.03940000  1
  H  H92  1  0.26820000  0.68580000  0.91140000  1
  H  H93  1  0.26820000  0.81420000  0.41140000  1
  H  H94  1  0.28130000  0.50210000  0.88830000  1
  H  H95  1  0.28130000  0.99790000  0.38830000  1
  H  H96  1  0.28390000  0.04850000  0.16930000  1
  H  H97  1  0.28390000  0.45150000  0.66930000  1
  H  H98  1  0.28770000  0.74200000  0.83540000  1
  H  H99  1  0.28770000  0.75800000  0.33540000  1
  H  H100  1  0.29400000  0.22460000  0.38970000  1
  H  H101  1  0.29400000  0.27540000  0.88970000  1
  H  H102  1  0.29610000  0.62130000  0.81890000  1
  H  H103  1  0.29610000  0.87870000  0.31890000  1
  H  H104  1  0.30150000  0.68450000  0.31560000  1
  H  H105  1  0.30150000  0.81550000  0.81560000  1
  H  H106  1  0.30510000  0.23570000  0.65900000  1
  H  H107  1  0.30510000  0.26430000  0.15900000  1
  H  H108  1  0.30880000  0.24900000  0.56850000  1
  H  H109  1  0.30880000  0.25100000  0.06850000  1
  H  H110  1  0.31150000  0.54990000  0.36300000  1
  H  H111  1  0.31150000  0.95010000  0.86300000  1
  H  H112  1  0.31630000  0.68850000  0.21640000  1
  H  H113  1  0.31630000  0.81150000  0.71640000  1
  H  H114  1  0.31880000  0.06090000  0.31930000  1
  H  H115  1  0.31880000  0.43910000  0.81930000  1
  H  H116  1  0.31900000  0.69130000  0.13060000  1
  H  H117  1  0.31900000  0.80870000  0.63060000  1
  H  H118  1  0.32180000  0.03750000  0.43140000  1
  H  H119  1  0.32180000  0.46250000  0.93140000  1
  H  H120  1  0.32630000  0.60280000  0.97100000  1
  H  H121  1  0.32630000  0.89720000  0.47100000  1
  H  H122  1  0.32730000  0.15320000  0.96450000  1
  H  H123  1  0.32730000  0.34680000  0.46450000  1
  H  H124  1  0.33333333  0.22920000  0.20930000  1
  H  H125  1  0.33333333  0.27080000  0.70930000  1
  H  H126  1  0.33810000  0.15090000  0.71600000  1
  H  H127  1  0.33810000  0.34910000  0.21600000  1
  H  H128  1  0.35590000  0.07130000  0.51610000  1
  H  H129  1  0.35590000  0.42870000  0.01610000  1
  H  H130  1  0.35620000  0.10110000  0.36350000  1
  H  H131  1  0.35620000  0.39890000  0.86350000  1
  H  H132  1  0.35690000  0.65600000  0.89850000  1
  H  H133  1  0.35690000  0.84400000  0.39850000  1
  H  H134  1  0.35760000  0.54470000  0.98980000  1
  H  H135  1  0.35760000  0.95530000  0.48980000  1
  H  H136  1  0.35800000  0.19400000  0.76140000  1
  H  H137  1  0.35800000  0.30600000  0.26140000  1
  H  H138  1  0.35880000  0.72970000  0.03220000  1
  H  H139  1  0.35880000  0.77030000  0.53220000  1
  H  H140  1  0.36220000  0.59450000  0.02970000  1
  H  H141  1  0.36220000  0.90550000  0.52970000  1
  H  H142  1  0.36510000  0.09420000  0.23790000  1
  H  H143  1  0.36510000  0.40580000  0.73790000  1
  H  H144  1  0.36980000  0.16960000  0.50910000  1
  H  H145  1  0.36980000  0.33040000  0.00910000  1
  H  H146  1  0.37570000  0.74090000  0.21810000  1
  H  H147  1  0.37570000  0.75910000  0.71810000  1
  H  H148  1  0.37710000  0.71250000  0.82320000  1
  H  H149  1  0.37710000  0.78750000  0.32320000  1
  H  H150  1  0.38200000  0.74200000  0.13240000  1
  H  H151  1  0.38200000  0.75800000  0.63240000  1
  H  H152  1  0.38830000  0.12780000  0.59140000  1
  H  H153  1  0.38830000  0.37220000  0.09140000  1
  H  H154  1  0.39570000  0.71220000  0.97550000  1
  H  H155  1  0.39570000  0.78780000  0.47550000  1
  H  H156  1  0.39670000  0.04070000  0.56580000  1
  H  H157  1  0.39670000  0.45930000  0.06580000  1
  H  H158  1  0.39810000  0.15440000  0.22800000  1
  H  H159  1  0.39810000  0.34560000  0.72800000  1
  H  H160  1  0.41750000  0.53560000  0.90510000  1
  H  H161  1  0.41750000  0.96440000  0.40510000  1
  H  H162  1  0.42090000  0.68260000  0.13150000  1
  H  H163  1  0.42090000  0.81740000  0.63150000  1
  H  H164  1  0.42110000  0.63790000  0.21630000  1
  H  H165  1  0.42110000  0.86210000  0.71630000  1
  H  H166  1  0.42450000  0.68150000  0.56910000  1
  H  H167  1  0.42450000  0.81850000  0.06910000  1
  H  H168  1  0.42510000  0.50740000  0.84840000  1
  H  H169  1  0.42510000  0.99260000  0.34840000  1
  H  H170  1  0.42610000  0.01100000  0.84810000  1
  H  H171  1  0.42610000  0.48900000  0.34810000  1
  H  H172  1  0.42790000  0.14920000  0.74690000  1
  H  H173  1  0.42790000  0.35080000  0.24690000  1
  H  H174  1  0.43920000  0.18990000  0.65940000  1
  H  H175  1  0.43920000  0.31010000  0.15940000  1
  H  H176  1  0.44290000  0.02140000  0.18230000  1
  H  H177  1  0.44290000  0.47860000  0.68230000  1
  H  H178  1  0.44650000  0.13800000  0.91130000  1
  H  H179  1  0.44650000  0.36200000  0.41130000  1
  H  H180  1  0.45550000  0.05510000  0.51580000  1
  H  H181  1  0.45550000  0.44490000  0.01580000  1
  H  H182  1  0.46030000  0.02260000  0.40000000  1
  H  H183  1  0.46030000  0.47740000  0.90000000  1
  H  H184  1  0.46820000  0.15740000  0.49420000  1
  H  H185  1  0.46820000  0.34260000  0.99420000  1
  H  H186  1  0.47440000  0.22800000  0.70580000  1
  H  H187  1  0.47440000  0.27200000  0.20580000  1
  H  H188  1  0.48630000  0.68590000  0.20500000  1
  H  H189  1  0.48630000  0.81410000  0.70500000  1
  H  H190  1  0.48780000  0.11770000  0.57870000  1
  H  H191  1  0.48780000  0.38230000  0.07870000  1
  H  H192  1  0.51220000  0.61770000  0.92130000  1
  H  H193  1  0.51220000  0.88230000  0.42130000  1
  H  H194  1  0.51370000  0.18590000  0.29500000  1
  H  H195  1  0.51370000  0.31410000  0.79500000  1
  H  H196  1  0.52560000  0.72800000  0.79420000  1
  H  H197  1  0.52560000  0.77200000  0.29420000  1
  H  H198  1  0.53180000  0.65740000  0.00580000  1
  H  H199  1  0.53180000  0.84260000  0.50580000  1
  H  H200  1  0.53970000  0.52260000  0.10000000  1
  H  H201  1  0.53970000  0.97740000  0.60000000  1
  H  H202  1  0.54450000  0.55510000  0.98420000  1
  H  H203  1  0.54450000  0.94490000  0.48420000  1
  H  H204  1  0.55350000  0.63800000  0.58870000  1
  H  H205  1  0.55350000  0.86200000  0.08870000  1
  H  H206  1  0.55710000  0.52140000  0.31770000  1
  H  H207  1  0.55710000  0.97860000  0.81770000  1
  H  H208  1  0.56080000  0.68990000  0.84060000  1
  H  H209  1  0.56080000  0.81010000  0.34060000  1
  H  H210  1  0.57210000  0.64920000  0.75310000  1
  H  H211  1  0.57210000  0.85080000  0.25310000  1
  H  H212  1  0.57390000  0.51100000  0.65190000  1
  H  H213  1  0.57390000  0.98900000  0.15190000  1
  H  H214  1  0.57490000  0.00740000  0.65160000  1
  H  H215  1  0.57490000  0.49260000  0.15160000  1
  H  H216  1  0.57550000  0.18150000  0.93090000  1
  H  H217  1  0.57550000  0.31850000  0.43090000  1
  H  H218  1  0.57890000  0.13790000  0.28370000  1
  H  H219  1  0.57890000  0.36210000  0.78370000  1
  H  H220  1  0.57910000  0.18260000  0.36850000  1
  H  H221  1  0.57910000  0.31740000  0.86850000  1
  H  H222  1  0.58250000  0.03560000  0.59490000  1
  H  H223  1  0.58250000  0.46440000  0.09490000  1
  H  H224  1  0.60190000  0.65440000  0.27200000  1
  H  H225  1  0.60190000  0.84560000  0.77200000  1
  H  H226  1  0.60330000  0.54070000  0.93420000  1
  H  H227  1  0.60330000  0.95930000  0.43420000  1
  H  H228  1  0.60430000  0.21220000  0.52450000  1
  H  H229  1  0.60430000  0.28780000  0.02450000  1
  H  H230  1  0.61170000  0.62780000  0.90860000  1
  H  H231  1  0.61170000  0.87220000  0.40860000  1
  H  H232  1  0.61800000  0.24200000  0.36760000  1
  H  H233  1  0.61800000  0.25800000  0.86760000  1
  H  H234  1  0.62290000  0.21250000  0.67680000  1
  H  H235  1  0.62290000  0.28750000  0.17680000  1
  H  H236  1  0.62430000  0.24090000  0.28190000  1
  H  H237  1  0.62430000  0.25910000  0.78190000  1
  H  H238  1  0.63020000  0.66960000  0.99090000  1
  H  H239  1  0.63020000  0.83040000  0.49090000  1
  H  H240  1  0.63490000  0.59420000  0.26210000  1
  H  H241  1  0.63490000  0.90580000  0.76210000  1
  H  H242  1  0.63780000  0.09450000  0.47030000  1
  H  H243  1  0.63780000  0.40550000  0.97030000  1
  H  H244  1  0.64120000  0.22970000  0.46780000  1
  H  H245  1  0.64120000  0.27030000  0.96780000  1
  H  H246  1  0.64200000  0.69400000  0.73860000  1
  H  H247  1  0.64200000  0.80600000  0.23860000  1
  H  H248  1  0.64240000  0.04470000  0.51020000  1
  H  H249  1  0.64240000  0.45530000  0.01020000  1
  H  H250  1  0.64310000  0.15600000  0.60150000  1
  H  H251  1  0.64310000  0.34400000  0.10150000  1
  H  H252  1  0.64380000  0.60110000  0.13650000  1
  H  H253  1  0.64380000  0.89890000  0.63650000  1
  H  H254  1  0.64410000  0.57130000  0.98390000  1
  H  H255  1  0.64410000  0.92870000  0.48390000  1
  H  H256  1  0.66190000  0.65090000  0.78400000  1
  H  H257  1  0.66190000  0.84910000  0.28400000  1
  H  H258  1  0.66666667  0.72920000  0.29070000  1
  H  H259  1  0.66666667  0.77080000  0.79070000  1
  H  H260  1  0.67270000  0.65320000  0.53550000  1
  H  H261  1  0.67270000  0.84680000  0.03550000  1
  H  H262  1  0.67370000  0.10280000  0.52900000  1
  H  H263  1  0.67370000  0.39720000  0.02900000  1
  H  H264  1  0.67820000  0.53750000  0.06860000  1
  H  H265  1  0.67820000  0.96250000  0.56860000  1
  H  H266  1  0.68100000  0.19130000  0.36940000  1
  H  H267  1  0.68100000  0.30870000  0.86940000  1
  H  H268  1  0.68120000  0.56090000  0.18070000  1
  H  H269  1  0.68120000  0.93910000  0.68070000  1
  H  H270  1  0.68370000  0.18850000  0.28360000  1
  H  H271  1  0.68370000  0.31150000  0.78360000  1
  H  H272  1  0.68850000  0.04990000  0.13700000  1
  H  H273  1  0.68850000  0.45010000  0.63700000  1
  H  H274  1  0.69120000  0.74900000  0.93150000  1
  H  H275  1  0.69120000  0.75100000  0.43150000  1
  H  H276  1  0.69490000  0.73570000  0.84100000  1
  H  H277  1  0.69490000  0.76430000  0.34100000  1
  H  H278  1  0.69850000  0.18450000  0.18440000  1
  H  H279  1  0.69850000  0.31550000  0.68440000  1
  H  H280  1  0.70390000  0.12130000  0.68110000  1
  H  H281  1  0.70390000  0.37870000  0.18110000  1
  H  H282  1  0.70600000  0.72460000  0.11030000  1
  H  H283  1  0.70600000  0.77540000  0.61030000  1
  H  H284  1  0.71230000  0.24200000  0.66460000  1
  H  H285  1  0.71230000  0.25800000  0.16460000  1
  H  H286  1  0.71610000  0.54850000  0.33070000  1
  H  H287  1  0.71610000  0.95150000  0.83070000  1
  H  H288  1  0.71870000  0.00210000  0.61170000  1
  H  H289  1  0.71870000  0.49790000  0.11170000  1
  H  H290  1  0.73180000  0.18580000  0.58860000  1
  H  H291  1  0.73180000  0.31420000  0.08860000  1
  H  H292  1  0.73450000  0.19310000  0.96060000  1
  H  H293  1  0.73450000  0.30690000  0.46060000  1
  H  H294  1  0.74810000  0.67250000  0.08360000  1
  H  H295  1  0.74810000  0.82750000  0.58360000  1
  H  H296  1  0.75100000  0.72190000  0.47450000  1
  H  H297  1  0.75100000  0.77810000  0.97450000  1
  H  H298  1  0.75370000  0.14040000  0.44460000  1
  H  H299  1  0.75370000  0.35960000  0.94460000  1
  H  H300  1  0.75980000  0.10280000  0.63120000  1
  H  H301  1  0.75980000  0.39720000  0.13120000  1
  H  H302  1  0.76010000  0.13360000  0.17640000  1
  H  H303  1  0.76010000  0.36640000  0.67640000  1
  H  H304  1  0.76090000  0.04040000  0.44900000  1
  H  H305  1  0.76090000  0.45960000  0.94900000  1
  H  H306  1  0.77060000  0.68970000  0.59560000  1
  H  H307  1  0.77060000  0.81030000  0.09560000  1
  H  H308  1  0.77840000  0.59710000  0.92390000  1
  H  H309  1  0.77840000  0.90290000  0.42390000  1
  H  H310  1  0.78050000  0.07200000  0.31230000  1
  H  H311  1  0.78050000  0.42800000  0.81230000  1
  H  H312  1  0.78940000  0.62680000  0.46210000  1
  H  H313  1  0.78940000  0.87320000  0.96210000  1
  H  H314  1  0.79270000  0.15090000  0.66800000  1
  H  H315  1  0.79270000  0.34910000  0.16800000  1
  H  H316  1  0.79710000  0.04890000  0.50820000  1
  H  H317  1  0.79710000  0.45110000  0.00820000  1
  H  H318  1  0.79840000  0.60700000  0.01680000  1
  H  H319  1  0.79840000  0.89300000  0.51680000  1
  H  H320  1  0.80100000  0.74230000  0.69530000  1
  H  H321  1  0.80100000  0.75770000  0.19530000  1
  H  H322  1  0.80150000  0.10570000  0.08880000  1
  H  H323  1  0.80150000  0.39430000  0.58880000  1
  H  H324  1  0.80160000  0.66530000  0.98970000  1
  H  H325  1  0.80160000  0.83470000  0.48970000  1
  H  H326  1  0.81370000  0.14030000  0.49590000  1
  H  H327  1  0.81370000  0.35970000  0.99590000  1
  H  H328  1  0.81620000  0.53830000  0.25800000  1
  H  H329  1  0.81620000  0.96170000  0.75800000  1
  H  H330  1  0.82030000  0.04830000  0.22390000  1
  H  H331  1  0.82030000  0.45170000  0.72390000  1
  H  H332  1  0.83690000  0.53100000  0.19630000  1
  H  H333  1  0.83690000  0.96900000  0.69630000  1
  H  H334  1  0.83730000  0.16220000  0.26410000  1
  H  H335  1  0.83730000  0.33780000  0.76410000  1
  H  H336  1  0.84560000  0.05580000  0.35870000  1
  H  H337  1  0.84560000  0.44420000  0.85870000  1
  H  H338  1  0.84850000  0.72650000  0.27650000  1
  H  H339  1  0.84850000  0.77350000  0.77650000  1
  H  H340  1  0.86450000  0.24720000  0.78040000  1
  H  H341  1  0.86450000  0.25280000  0.28040000  1
  H  H342  1  0.86700000  0.62790000  0.91290000  1
  H  H343  1  0.86700000  0.87210000  0.41290000  1
  H  H344  1  0.86790000  0.56980000  0.94000000  1
  H  H345  1  0.86790000  0.93020000  0.44000000  1
  H  H346  1  0.87180000  0.63660000  0.29120000  1
  H  H347  1  0.87180000  0.86340000  0.79120000  1
  H  H348  1  0.87960000  0.00750000  0.59640000  1
  H  H349  1  0.87960000  0.49250000  0.09640000  1
  H  H350  1  0.89180000  0.24780000  0.96820000  1
  H  H351  1  0.89180000  0.25220000  0.46820000  1
  H  H352  1  0.89580000  0.10300000  0.60380000  1
  H  H353  1  0.89580000  0.39700000  0.10380000  1
  H  H354  1  0.90230000  0.21930000  0.86440000  1
  H  H355  1  0.90230000  0.28070000  0.36440000  1
  H  H356  1  0.90880000  0.02550000  0.65430000  1
  H  H357  1  0.90880000  0.47450000  0.15430000  1
  H  H358  1  0.93040000  0.52920000  0.31900000  1
  H  H359  1  0.93040000  0.97080000  0.81900000  1
  H  H360  1  0.93360000  0.19410000  0.47730000  1
  H  H361  1  0.93360000  0.30590000  0.97730000  1
  H  H362  1  0.94190000  0.50240000  0.87420000  1
  H  H363  1  0.94190000  0.99760000  0.37420000  1
  H  H364  1  0.95350000  0.60300000  0.01330000  1
  H  H365  1  0.95350000  0.89700000  0.51330000  1
  H  H366  1  0.95490000  0.66250000  0.98880000  1
  H  H367  1  0.95490000  0.83750000  0.48880000  1
  H  H368  1  0.95560000  0.07880000  0.55810000  1
  H  H369  1  0.95560000  0.42120000  0.05810000  1
  H  H370  1  0.98420000  0.17310000  0.95630000  1
  H  H371  1  0.98420000  0.32690000  0.45630000  1
  H  H372  1  0.98680000  0.02850000  0.42270000  1
  H  H373  1  0.98680000  0.47150000  0.92270000  1
  H  H374  1  0.99640000  0.09470000  0.61410000  1
  H  H375  1  0.99640000  0.40530000  0.11410000  1
  C  C376  1  0.00480000  0.51580000  0.11400000  1
  C  C377  1  0.00480000  0.98420000  0.61400000  1
  C  C378  1  0.00940000  0.55460000  0.20220000  1
  C  C379  1  0.00940000  0.94540000  0.70220000  1
  C  C380  1  0.01920000  0.24870000  0.44600000  1
  C  C381  1  0.01920000  0.25130000  0.94600000  1
  C  C382  1  0.02770000  0.03570000  0.20760000  1
  C  C383  1  0.02770000  0.46430000  0.70760000  1
  C  C384  1  0.03080000  0.19580000  0.94690000  1
  C  C385  1  0.03080000  0.30420000  0.44690000  1
  C  C386  1  0.05390000  0.04590000  0.25900000  1
  C  C387  1  0.05390000  0.45410000  0.75900000  1
  C  C388  1  0.05500000  0.58010000  0.90360000  1
  C  C389  1  0.05500000  0.91990000  0.40360000  1
  C  C390  1  0.05870000  0.53470000  0.30570000  1
  C  C391  1  0.05870000  0.96530000  0.80570000  1
  C  C392  1  0.06910000  0.72500000  0.04730000  1
  C  C393  1  0.06910000  0.77500000  0.54730000  1
  C  C394  1  0.07230000  0.52300000  0.88300000  1
  C  C395  1  0.07230000  0.97700000  0.38300000  1
  C  C396  1  0.07700000  0.13790000  0.48760000  1
  C  C397  1  0.07700000  0.36210000  0.98760000  1
  C  C398  1  0.08610000  0.52140000  0.35990000  1
  C  C399  1  0.08610000  0.97860000  0.85990000  1
  C  C400  1  0.09060000  0.21630000  0.43290000  1
  C  C401  1  0.09060000  0.28370000  0.93290000  1
  C  C402  1  0.09600000  0.55760000  0.21480000  1
  C  C403  1  0.09600000  0.94240000  0.71480000  1
  C  C404  1  0.10400000  0.70660000  0.10040000  1
  C  C405  1  0.10400000  0.79340000  0.60040000  1
  C  C406  1  0.10950000  0.74390000  0.14210000  1
  C  C407  1  0.10950000  0.75610000  0.64210000  1
  C  C408  1  0.11020000  0.17340000  0.93430000  1
  C  C409  1  0.11020000  0.32660000  0.43430000  1
  C  C410  1  0.12050000  0.54710000  0.26680000  1
  C  C411  1  0.12050000  0.95290000  0.76680000  1
  C  C412  1  0.12370000  0.11440000  0.93920000  1
  C  C413  1  0.12370000  0.38560000  0.43920000  1
  C  C414  1  0.12680000  0.65380000  0.11030000  1
  C  C415  1  0.12680000  0.84620000  0.61030000  1
  C  C416  1  0.13170000  0.72750000  0.19160000  1
  C  C417  1  0.13170000  0.77250000  0.69160000  1
  C  C418  1  0.14650000  0.63620000  0.16150000  1
  C  C419  1  0.14650000  0.86380000  0.66150000  1
  C  C420  1  0.14880000  0.05210000  0.27170000  1
  C  C421  1  0.14880000  0.44790000  0.77170000  1
  C  C422  1  0.14890000  0.67340000  0.20100000  1
  C  C423  1  0.14890000  0.82660000  0.70100000  1
  C  C424  1  0.15030000  0.14810000  0.24200000  1
  C  C425  1  0.15030000  0.35190000  0.74200000  1
  C  C426  1  0.16050000  0.57720000  0.17400000  1
  C  C427  1  0.16050000  0.92280000  0.67400000  1
  C  C428  1  0.16330000  0.20150000  0.25100000  1
  C  C429  1  0.16330000  0.29850000  0.75100000  1
  C  C430  1  0.16340000  0.10390000  0.56280000  1
  C  C431  1  0.16340000  0.39610000  0.06280000  1
  C  C432  1  0.16380000  0.61210000  0.51440000  1
  C  C433  1  0.16380000  0.88790000  0.01440000  1
  C  C434  1  0.16770000  0.23840000  0.41570000  1
  C  C435  1  0.16770000  0.26160000  0.91570000  1
  C  C436  1  0.16880000  0.13020000  0.50780000  1
  C  C437  1  0.16880000  0.36980000  0.00780000  1
  C  C438  1  0.16940000  0.11030000  0.28100000  1
  C  C439  1  0.16940000  0.38970000  0.78100000  1
  C  C440  1  0.17730000  0.20560000  0.91630000  1
  C  C441  1  0.17730000  0.29440000  0.41630000  1
  C  C442  1  0.18220000  0.03460000  0.08710000  1
  C  C443  1  0.18220000  0.46540000  0.58710000  1
  C  C444  1  0.19300000  0.22030000  0.29880000  1
  C  C445  1  0.19300000  0.27970000  0.79880000  1
  C  C446  1  0.20110000  0.62000000  0.03650000  1
  C  C447  1  0.20110000  0.88000000  0.53650000  1
  C  C448  1  0.20500000  0.12870000  0.32810000  1
  C  C449  1  0.20500000  0.37130000  0.82810000  1
  C  C450  1  0.21450000  0.18320000  0.33910000  1
  C  C451  1  0.21450000  0.31680000  0.83910000  1
  C  C452  1  0.22200000  0.64484000  0.48076000  1
  C  C453  1  0.22200000  0.85516000  0.98076000  1
  C  C454  1  0.22990000  0.63450000  0.42645000  1
  C  C455  1  0.22990000  0.86550000  0.92645000  1
  C  C456  1  0.23770000  0.56520000  0.02040000  1
  C  C457  1  0.23770000  0.93480000  0.52040000  1
  C  C458  1  0.23820000  0.08130000  0.10176000  1
  C  C459  1  0.23820000  0.41870000  0.60176000  1
  C  C460  1  0.24050000  0.20330000  0.39260000  1
  C  C461  1  0.24050000  0.29670000  0.89260000  1
  C  C462  1  0.24300000  0.12610000  0.06980000  1
  C  C463  1  0.24300000  0.37390000  0.56980000  1
  C  C464  1  0.25800000  0.63360000  0.84730000  1
  C  C465  1  0.25800000  0.86640000  0.34730000  1
  C  C466  1  0.27030000  0.68595000  0.50260000  1
  C  C467  1  0.27030000  0.81405000  0.00260000  1
  C  C468  1  0.28250000  0.66570000  0.39470000  1
  C  C469  1  0.28250000  0.83430000  0.89470000  1
  C  C470  1  0.28620000  0.07970000  0.14770000  1
  C  C471  1  0.28620000  0.42030000  0.64770000  1
  C  C472  1  0.29300000  0.65130000  0.33640000  1
  C  C473  1  0.29300000  0.84870000  0.83640000  1
  C  C474  1  0.29390000  0.17030000  0.08260000  1
  C  C475  1  0.29390000  0.32970000  0.58260000  1
  C  C476  1  0.30210000  0.21810000  0.04690000  1
  C  C477  1  0.30210000  0.28190000  0.54690000  1
  C  C478  1  0.30660000  0.67410000  0.88240000  1
  C  C479  1  0.30660000  0.82590000  0.38240000  1
  C  C480  1  0.31330000  0.07260000  0.35650000  1
  C  C481  1  0.31330000  0.42740000  0.85650000  1
  C  C482  1  0.32520000  0.71675000  0.47240000  1
  C  C483  1  0.32520000  0.78325000  0.97240000  1
  C  C484  1  0.32680000  0.02490000  0.39440000  1
  C  C485  1  0.32680000  0.47510000  0.89440000  1
  C  C486  1  0.32870000  0.70810000  0.41800000  1
  C  C487  1  0.32870000  0.79190000  0.91800000  1
  C  C488  1  0.32930000  0.57800000  0.00100000  1
  C  C489  1  0.32930000  0.92200000  0.50100000  1
  C  C490  1  0.33740000  0.12190000  0.16320000  1
  C  C491  1  0.33740000  0.37810000  0.66320000  1
  C  C492  1  0.33760000  0.72380000  0.85180000  1
  C  C493  1  0.33760000  0.77620000  0.35180000  1
  C  C494  1  0.34060000  0.16750000  0.13040000  1
  C  C495  1  0.34060000  0.33250000  0.63040000  1
  C  C496  1  0.35450000  0.24720000  0.17700000  1
  C  C497  1  0.35450000  0.25280000  0.67700000  1
  C  C498  1  0.36280000  0.56160000  0.34610000  1
  C  C499  1  0.36280000  0.93840000  0.84610000  1
  C  C500  1  0.36980000  0.61370000  0.32800000  1
  C  C501  1  0.36980000  0.88630000  0.82800000  1
  C  C502  1  0.37190000  0.70370000  0.20450000  1
  C  C503  1  0.37190000  0.79630000  0.70450000  1
  C  C504  1  0.37360000  0.70500000  0.14440000  1
  C  C505  1  0.37360000  0.79500000  0.64440000  1
  C  C506  1  0.37840000  0.17320000  0.97030000  1
  C  C507  1  0.37840000  0.32680000  0.47030000  1
  C  C508  1  0.37940000  0.21210000  0.01010000  1
  C  C509  1  0.37940000  0.28790000  0.51010000  1
  C  C510  1  0.38300000  0.17270000  0.73260000  1
  C  C511  1  0.38300000  0.32730000  0.23260000  1
  C  C512  1  0.38560000  0.74320000  0.99930000  1
  C  C513  1  0.38560000  0.75680000  0.49930000  1
  C  C514  1  0.39250000  0.11840000  0.21180000  1
  C  C515  1  0.39250000  0.38160000  0.71180000  1
  C  C516  1  0.40750000  0.06720000  0.53800000  1
  C  C517  1  0.40750000  0.43280000  0.03800000  1
  C  C518  1  0.41550000  0.50130000  0.88620000  1
  C  C519  1  0.41550000  0.99870000  0.38620000  1
  C  C520  1  0.42240000  0.21040000  0.69130000  1
  C  C521  1  0.42240000  0.28960000  0.19130000  1
  C  C522  1  0.42850000  0.16530000  0.52380000  1
  C  C523  1  0.42850000  0.33470000  0.02380000  1
  C  C524  1  0.42980000  0.12010000  0.56270000  1
  C  C525  1  0.42980000  0.37990000  0.06270000  1
  C  C526  1  0.43220000  0.52580000  0.33930000  1
  C  C527  1  0.43220000  0.97420000  0.83930000  1
  C  C528  1  0.43290000  0.67610000  0.22400000  1
  C  C529  1  0.43290000  0.82390000  0.72400000  1
  C  C530  1  0.44560000  0.63090000  0.30422000  1
  C  C531  1  0.44560000  0.86910000  0.80422000  1
  C  C532  1  0.44930000  0.16310000  0.93950000  1
  C  C533  1  0.44930000  0.33690000  0.43950000  1
  C  C534  1  0.45440000  0.24260000  0.01610000  1
  C  C535  1  0.45440000  0.25740000  0.51610000  1
  C  C536  1  0.47090000  0.72989000  0.51220000  1
  C  C537  1  0.47090000  0.77011000  0.01220000  1
  C  C538  1  0.47500000  0.69040000  0.54980000  1
  C  C539  1  0.47500000  0.80960000  0.04980000  1
  C  C540  1  0.48240000  0.09670000  0.19700000  1
  C  C541  1  0.48240000  0.40330000  0.69700000  1
  C  C542  1  0.49100000  0.04490000  0.18040000  1
  C  C543  1  0.49100000  0.45510000  0.68040000  1
  C  C544  1  0.50900000  0.54490000  0.31960000  1
  C  C545  1  0.50900000  0.95510000  0.81960000  1
  C  C546  1  0.51760000  0.59670000  0.30300000  1
  C  C547  1  0.51760000  0.90330000  0.80300000  1
  C  C548  1  0.52500000  0.19040000  0.95020000  1
  C  C549  1  0.52500000  0.30960000  0.45020000  1
  C  C550  1  0.52910000  0.22989000  0.98780000  1
  C  C551  1  0.52910000  0.27011000  0.48780000  1
  C  C552  1  0.54560000  0.74260000  0.48390000  1
  C  C553  1  0.54560000  0.75740000  0.98390000  1
  C  C554  1  0.55070000  0.66310000  0.56050000  1
  C  C555  1  0.55070000  0.83690000  0.06050000  1
  C  C556  1  0.55440000  0.13090000  0.19578000  1
  C  C557  1  0.55440000  0.36910000  0.69578000  1
  C  C558  1  0.56710000  0.17610000  0.27600000  1
  C  C559  1  0.56710000  0.32390000  0.77600000  1
  C  C560  1  0.56780000  0.02580000  0.16070000  1
  C  C561  1  0.56780000  0.47420000  0.66070000  1
  C  C562  1  0.57020000  0.62010000  0.93730000  1
  C  C563  1  0.57020000  0.87990000  0.43730000  1
  C  C564  1  0.57150000  0.66530000  0.97620000  1
  C  C565  1  0.57150000  0.83470000  0.47620000  1
  C  C566  1  0.57760000  0.71040000  0.80870000  1
  C  C567  1  0.57760000  0.78960000  0.30870000  1
  C  C568  1  0.58450000  0.00130000  0.61380000  1
  C  C569  1  0.58450000  0.49870000  0.11380000  1
  C  C570  1  0.59250000  0.56720000  0.96200000  1
  C  C571  1  0.59250000  0.93280000  0.46200000  1
  C  C572  1  0.60750000  0.61840000  0.28820000  1
  C  C573  1  0.60750000  0.88160000  0.78820000  1
  C  C574  1  0.61440000  0.24320000  0.50070000  1
  C  C575  1  0.61440000  0.25680000  0.00070000  1
  C  C576  1  0.61700000  0.67270000  0.76740000  1
  C  C577  1  0.61700000  0.82730000  0.26740000  1
  C  C578  1  0.62060000  0.71210000  0.48990000  1
  C  C579  1  0.62060000  0.78790000  0.98990000  1
  C  C580  1  0.62160000  0.67320000  0.52970000  1
  C  C581  1  0.62160000  0.82680000  0.02970000  1
  C  C582  1  0.62640000  0.20500000  0.35560000  1
  C  C583  1  0.62640000  0.29500000  0.85560000  1
  C  C584  1  0.62810000  0.20370000  0.29550000  1
  C  C585  1  0.62810000  0.29630000  0.79550000  1
  C  C586  1  0.63020000  0.11370000  0.17200000  1
  C  C587  1  0.63020000  0.38630000  0.67200000  1
  C  C588  1  0.63720000  0.06160000  0.15390000  1
  C  C589  1  0.63720000  0.43840000  0.65390000  1
  C  C590  1  0.64550000  0.74720000  0.32300000  1
  C  C591  1  0.64550000  0.75280000  0.82300000  1
  C  C592  1  0.65940000  0.66750000  0.36960000  1
  C  C593  1  0.65940000  0.83250000  0.86960000  1
  C  C594  1  0.66240000  0.22380000  0.64820000  1
  C  C595  1  0.66240000  0.27620000  0.14820000  1
  C  C596  1  0.66260000  0.62190000  0.33680000  1
  C  C597  1  0.66260000  0.87810000  0.83680000  1
  C  C598  1  0.67070000  0.07800000  0.49900000  1
  C  C599  1  0.67070000  0.42200000  0.99900000  1
  C  C600  1  0.67130000  0.20810000  0.08200000  1
  C  C601  1  0.67130000  0.29190000  0.58200000  1
  C  C602  1  0.67320000  0.52490000  0.10560000  1
  C  C603  1  0.67320000  0.97510000  0.60560000  1
  C  C604  1  0.67480000  0.21675000  0.02760000  1
  C  C605  1  0.67480000  0.28325000  0.52760000  1
  C  C606  1  0.68670000  0.57260000  0.14350000  1
  C  C607  1  0.68670000  0.92740000  0.64350000  1
  C  C608  1  0.69340000  0.17410000  0.61760000  1
  C  C609  1  0.69340000  0.32590000  0.11760000  1
  C  C610  1  0.69790000  0.71810000  0.45310000  1
  C  C611  1  0.69790000  0.78190000  0.95310000  1
  C  C612  1  0.70610000  0.67030000  0.41740000  1
  C  C613  1  0.70610000  0.82970000  0.91740000  1
  C  C614  1  0.70700000  0.15130000  0.16360000  1
  C  C615  1  0.70700000  0.34870000  0.66360000  1
  C  C616  1  0.71380000  0.57970000  0.35230000  1
  C  C617  1  0.71380000  0.92030000  0.85230000  1
  C  C618  1  0.71750000  0.16570000  0.10530000  1
  C  C619  1  0.71750000  0.33430000  0.60530000  1
  C  C620  1  0.72970000  0.18595000  0.99740000  1
  C  C621  1  0.72970000  0.31405000  0.49740000  1
  C  C622  1  0.74200000  0.13360000  0.65270000  1
  C  C623  1  0.74200000  0.36640000  0.15270000  1
  C  C624  1  0.75700000  0.62610000  0.43020000  1
  C  C625  1  0.75700000  0.87390000  0.93020000  1
  C  C626  1  0.75950000  0.70330000  0.10740000  1
  C  C627  1  0.75950000  0.79670000  0.60740000  1
  C  C628  1  0.76180000  0.58130000  0.39824000  1
  C  C629  1  0.76180000  0.91870000  0.89824000  1
  C  C630  1  0.76230000  0.06520000  0.47960000  1
  C  C631  1  0.76230000  0.43480000  0.97960000  1
  C  C632  1  0.77010000  0.13450000  0.07355000  1
  C  C633  1  0.77010000  0.36550000  0.57355000  1
  C  C634  1  0.77800000  0.14484000  0.01924000  1
  C  C635  1  0.77800000  0.35516000  0.51924000  1
  C  C636  1  0.78550000  0.68320000  0.16090000  1
  C  C637  1  0.78550000  0.81680000  0.66090000  1
  C  C638  1  0.79500000  0.62870000  0.17190000  1
  C  C639  1  0.79500000  0.87130000  0.67190000  1
  C  C640  1  0.79890000  0.12000000  0.46350000  1
  C  C641  1  0.79890000  0.38000000  0.96350000  1
  C  C642  1  0.80700000  0.72030000  0.20120000  1
  C  C643  1  0.80700000  0.77970000  0.70120000  1
  C  C644  1  0.81780000  0.53460000  0.41290000  1
  C  C645  1  0.81780000  0.96540000  0.91290000  1
  C  C646  1  0.82270000  0.70560000  0.58370000  1
  C  C647  1  0.82270000  0.79440000  0.08370000  1
  C  C648  1  0.83060000  0.61030000  0.21900000  1
  C  C649  1  0.83060000  0.88970000  0.71900000  1
  C  C650  1  0.83120000  0.63020000  0.99220000  1
  C  C651  1  0.83120000  0.86980000  0.49220000  1
  C  C652  1  0.83230000  0.73840000  0.08430000  1
  C  C653  1  0.83230000  0.76160000  0.58430000  1
  C  C654  1  0.83620000  0.11210000  0.98560000  1
  C  C655  1  0.83620000  0.38790000  0.48560000  1
  C  C656  1  0.83660000  0.60390000  0.93720000  1
  C  C657  1  0.83660000  0.89610000  0.43720000  1
  C  C658  1  0.83670000  0.70150000  0.24900000  1
  C  C659  1  0.83670000  0.79850000  0.74900000  1
  C  C660  1  0.83950000  0.07720000  0.32600000  1
  C  C661  1  0.83950000  0.42280000  0.82600000  1
  C  C662  1  0.84970000  0.64810000  0.25800000  1
  C  C663  1  0.84970000  0.85190000  0.75800000  1
  C  C664  1  0.85110000  0.17340000  0.29900000  1
  C  C665  1  0.85110000  0.32660000  0.79900000  1
  C  C666  1  0.85120000  0.55210000  0.22830000  1
  C  C667  1  0.85120000  0.94790000  0.72830000  1
  C  C668  1  0.85350000  0.13620000  0.33850000  1
  C  C669  1  0.85350000  0.36380000  0.83850000  1
  C  C670  1  0.86830000  0.22750000  0.30840000  1
  C  C671  1  0.86830000  0.27250000  0.80840000  1
  C  C672  1  0.87320000  0.15380000  0.38970000  1
  C  C673  1  0.87320000  0.34620000  0.88970000  1
  C  C674  1  0.87630000  0.61440000  0.56080000  1
  C  C675  1  0.87630000  0.88560000  0.06080000  1
  C  C676  1  0.87950000  0.04710000  0.23320000  1
  C  C677  1  0.87950000  0.45290000  0.73320000  1
  C  C678  1  0.88980000  0.67340000  0.56570000  1
  C  C679  1  0.88980000  0.82660000  0.06570000  1
  C  C680  1  0.89050000  0.24390000  0.35790000  1
  C  C681  1  0.89050000  0.25610000  0.85790000  1
  C  C682  1  0.89600000  0.20660000  0.39960000  1
  C  C683  1  0.89600000  0.29340000  0.89960000  1
  C  C684  1  0.90400000  0.05760000  0.28520000  1
  C  C685  1  0.90400000  0.44240000  0.78520000  1
  C  C686  1  0.90940000  0.71630000  0.06710000  1
  C  C687  1  0.90940000  0.78370000  0.56710000  1
  C  C688  1  0.91390000  0.02140000  0.14010000  1
  C  C689  1  0.91390000  0.47860000  0.64010000  1
  C  C690  1  0.92300000  0.63790000  0.01240000  1
  C  C691  1  0.92300000  0.86210000  0.51240000  1
  C  C692  1  0.92770000  0.02300000  0.61700000  1
  C  C693  1  0.92770000  0.47700000  0.11700000  1
  C  C694  1  0.93090000  0.22500000  0.45270000  1
  C  C695  1  0.93090000  0.27500000  0.95270000  1
  C  C696  1  0.94130000  0.03470000  0.19430000  1
  C  C697  1  0.94130000  0.46530000  0.69430000  1
  C  C698  1  0.94500000  0.08010000  0.59640000  1
  C  C699  1  0.94500000  0.41990000  0.09640000  1
  C  C700  1  0.94610000  0.54590000  0.24100000  1
  C  C701  1  0.94610000  0.95410000  0.74100000  1
  C  C702  1  0.96920000  0.69580000  0.55310000  1
  C  C703  1  0.96920000  0.80420000  0.05310000  1
  C  C704  1  0.97230000  0.53570000  0.29240000  1
  C  C705  1  0.97230000  0.96430000  0.79240000  1
  C  C706  1  0.98080000  0.74870000  0.05400000  1
  C  C707  1  0.98080000  0.75130000  0.55400000  1
  C  C708  1  0.99060000  0.05460000  0.29780000  1
  C  C709  1  0.99060000  0.44540000  0.79780000  1
  C  C710  1  0.99520000  0.01580000  0.38600000  1
  C  C711  1  0.99520000  0.48420000  0.88600000  1
  O  O712  1  0.01630000  0.06300000  0.34932000  1
  O  O713  1  0.01630000  0.43700000  0.84932000  1
  O  O714  1  0.02970000  0.51382000  0.39585000  1
  O  O715  1  0.02970000  0.98618000  0.89585000  1
  O  O716  1  0.05970000  0.08388000  0.94860000  1
  O  O717  1  0.05970000  0.41612000  0.44860000  1
  O  O718  1  0.08190000  0.16155000  0.43202000  1
  O  O719  1  0.08190000  0.33845000  0.93202000  1
  O  O720  1  0.12180000  0.57283000  0.49493000  1
  O  O721  1  0.12180000  0.92717000  0.99493000  1
  O  O722  1  0.12680000  0.61728000  0.06941000  1
  O  O723  1  0.12680000  0.88272000  0.56941000  1
  O  O724  1  0.14070000  0.03576000  0.04430000  1
  O  O725  1  0.14070000  0.46424000  0.54430000  1
  O  O726  1  0.15580000  0.62464000  0.56220000  1
  O  O727  1  0.15580000  0.87536000  0.06220000  1
  O  O728  1  0.16500000  0.51872000  0.36998000  1
  O  O729  1  0.16500000  0.98128000  0.86998000  1
  O  O730  1  0.17710000  0.50394000  0.61912000  1
  O  O731  1  0.17710000  0.99606000  0.11912000  1
  O  O732  1  0.19790000  0.09574000  0.93458000  1
  O  O733  1  0.19790000  0.40426000  0.43458000  1
  O  O734  1  0.22790000  0.09192000  0.36682000  1
  O  O735  1  0.22790000  0.40808000  0.86682000  1
  O  O736  1  0.38190000  0.73903000  0.38717000  1
  O  O737  1  0.38190000  0.76097000  0.88717000  1
  O  O738  1  0.39380000  0.20947000  0.14310000  1
  O  O739  1  0.39380000  0.29053000  0.64310000  1
  O  O740  1  0.45040000  0.68101000  0.28281000  1
  O  O741  1  0.45040000  0.81899000  0.78281000  1
  O  O742  1  0.45450000  0.21386000  0.55002000  1
  O  O743  1  0.45450000  0.28614000  0.05002000  1
  O  O744  1  0.54550000  0.71386000  0.94998000  1
  O  O745  1  0.54550000  0.78614000  0.44998000  1
  O  O746  1  0.54960000  0.18101000  0.21719000  1
  O  O747  1  0.54960000  0.31899000  0.71719000  1
  O  O748  1  0.60620000  0.70947000  0.35690000  1
  O  O749  1  0.60620000  0.79053000  0.85690000  1
  O  O750  1  0.61810000  0.23903000  0.11283000  1
  O  O751  1  0.61810000  0.26097000  0.61283000  1
  O  O752  1  0.77210000  0.59192000  0.13318000  1
  O  O753  1  0.77210000  0.90808000  0.63318000  1
  O  O754  1  0.80210000  0.59574000  0.56542000  1
  O  O755  1  0.80210000  0.90426000  0.06542000  1
  O  O756  1  0.82290000  0.00394000  0.88088000  1
  O  O757  1  0.82290000  0.49606000  0.38088000  1
  O  O758  1  0.83500000  0.01872000  0.13002000  1
  O  O759  1  0.83500000  0.48128000  0.63002000  1
  O  O760  1  0.84420000  0.12464000  0.93780000  1
  O  O761  1  0.84420000  0.37536000  0.43780000  1
  O  O762  1  0.85930000  0.53576000  0.45570000  1
  O  O763  1  0.85930000  0.96424000  0.95570000  1
  O  O764  1  0.87320000  0.11728000  0.43059000  1
  O  O765  1  0.87320000  0.38272000  0.93059000  1
  O  O766  1  0.87820000  0.07283000  0.00507000  1
  O  O767  1  0.87820000  0.42717000  0.50507000  1
  O  O768  1  0.91810000  0.66155000  0.06798000  1
  O  O769  1  0.91810000  0.83845000  0.56798000  1
  O  O770  1  0.94030000  0.58388000  0.55140000  1
  O  O771  1  0.94030000  0.91612000  0.05140000  1
  O  O772  1  0.97030000  0.01382000  0.10415000  1
  O  O773  1  0.97030000  0.48618000  0.60415000  1
  O  O774  1  0.98370000  0.56300000  0.15068000  1
  O  O775  1  0.98370000  0.93700000  0.65068000  1
