# generated using pymatgen
data_Ce3P3H45C37N3O23
_symmetry_space_group_name_H-M   'P 1'
_cell_length_a   15.20950000
_cell_length_b   15.30490000
_cell_length_c   15.36980000
_cell_angle_alpha   106.48500000
_cell_angle_beta   117.14300000
_cell_angle_gamma   103.23600000
_symmetry_Int_Tables_number   1
_chemical_formula_structural   Ce3P3H45C37N3O23
_chemical_formula_sum   'Ce6 P6 H90 C74 N6 O46'
_cell_volume   2770.51014233
_cell_formula_units_Z   2
loop_
 _symmetry_equiv_pos_site_id
 _symmetry_equiv_pos_as_xyz
  1  'x, y, z'
loop_
 _atom_site_type_symbol
 _atom_site_label
 _atom_site_symmetry_multiplicity
 _atom_site_fract_x
 _atom_site_fract_y
 _atom_site_fract_z
 _atom_site_occupancy
  Ce  Ce0  1  0.05686000  0.19758000  0.36611000  1
  Ce  Ce1  1  0.08463000  0.85430000  0.43728000  1
  Ce  Ce2  1  0.32052000  0.18275000  0.61513000  1
  Ce  Ce3  1  0.67948000  0.81725000  0.38487000  1
  Ce  Ce4  1  0.91537000  0.14570000  0.56272000  1
  Ce  Ce5  1  0.94314000  0.80242000  0.63389000  1
  P  P6  1  0.11717000  0.02455000  0.64270000  1
  P  P7  1  0.12575000  0.01765000  0.31010000  1
  P  P8  1  0.19642000  0.30505000  0.67390000  1
  P  P9  1  0.80358000  0.69495000  0.32610000  1
  P  P10  1  0.87425000  0.98235000  0.68990000  1
  P  P11  1  0.88283000  0.97545000  0.35730000  1
  H  H12  1  0.02850000  0.52420000  0.58390000  1
  H  H13  1  0.06870000  0.61090000  0.69560000  1
  H  H14  1  0.09470000  0.16650000  0.81350000  1
  H  H15  1  0.11110000  0.47590000  0.71560000  1
  H  H16  1  0.13520000  0.68750000  0.92120000  1
  H  H17  1  0.14480000  0.32030000  0.95120000  1
  H  H18  1  0.15890000  0.43790000  0.59640000  1
  H  H19  1  0.16320000  0.17050000  0.92910000  1
  H  H20  1  0.16320000  0.55820000  0.51280000  1
  H  H21  1  0.17200000  0.99030000  0.18370000  1
  H  H22  1  0.17640000  0.03370000  0.81570000  1
  H  H23  1  0.19440000  0.33720000  0.88420000  1
  H  H24  1  0.21370000  0.70760000  0.70490000  1
  H  H25  1  0.21380000  0.57900000  0.78880000  1
  H  H26  1  0.22130000  0.10570000  0.25770000  1
  H  H27  1  0.25420000  0.21370000  0.81960000  1
  H  H28  1  0.26400000  0.89170000  0.27790000  1
  H  H29  1  0.26480000  0.66220000  0.58800000  1
  H  H30  1  0.26730000  0.54050000  0.43570000  1
  H  H31  1  0.27520000  0.05970000  0.80460000  1
  H  H32  1  0.27910000  0.67740000  0.05750000  1
  H  H33  1  0.29480000  0.52540000  0.17690000  1
  H  H34  1  0.29680000  0.92020000  0.20340000  1
  H  H35  1  0.29990000  0.47320000  0.80320000  1
  H  H36  1  0.30930000  0.34150000  0.09260000  1
  H  H37  1  0.31130000  0.53050000  0.61660000  1
  H  H38  1  0.33670000  0.05550000  0.39100000  1
  H  H39  1  0.33940000  0.44840000  0.72490000  1
  H  H40  1  0.34130000  0.91970000  0.94470000  1
  H  H41  1  0.34150000  0.61450000  0.72530000  1
  H  H42  1  0.35210000  0.19650000  0.00940000  1
  H  H43  1  0.36880000  0.34300000  0.32270000  1
  H  H44  1  0.38870000  0.10540000  0.25960000  1
  H  H45  1  0.39870000  0.66850000  0.45170000  1
  H  H46  1  0.40490000  0.18340000  0.36350000  1
  H  H47  1  0.40680000  0.36970000  0.97780000  1
  H  H48  1  0.40880000  0.21230000  0.94810000  1
  H  H49  1  0.42350000  0.87380000  0.30590000  1
  H  H50  1  0.42940000  0.82710000  0.59750000  1
  H  H51  1  0.44130000  0.94510000  0.41420000  1
  H  H52  1  0.46190000  0.85500000  0.52240000  1
  H  H53  1  0.46400000  0.36710000  0.09110000  1
  H  H54  1  0.48630000  0.91690000  0.08670000  1
  H  H55  1  0.49250000  0.99250000  0.71090000  1
  H  H56  1  0.49610000  0.46790000  0.33440000  1
  H  H57  1  0.50390000  0.53210000  0.66560000  1
  H  H58  1  0.50750000  0.00750000  0.28910000  1
  H  H59  1  0.51370000  0.08310000  0.91330000  1
  H  H60  1  0.53600000  0.63290000  0.90890000  1
  H  H61  1  0.53810000  0.14500000  0.47760000  1
  H  H62  1  0.55870000  0.05490000  0.58580000  1
  H  H63  1  0.57060000  0.17290000  0.40250000  1
  H  H64  1  0.57650000  0.12620000  0.69410000  1
  H  H65  1  0.59120000  0.78770000  0.05190000  1
  H  H66  1  0.59320000  0.63030000  0.02220000  1
  H  H67  1  0.59510000  0.81660000  0.63650000  1
  H  H68  1  0.60130000  0.33150000  0.54830000  1
  H  H69  1  0.61130000  0.89460000  0.74040000  1
  H  H70  1  0.63120000  0.65700000  0.67730000  1
  H  H71  1  0.64790000  0.80350000  0.99060000  1
  H  H72  1  0.65850000  0.38550000  0.27470000  1
  H  H73  1  0.65870000  0.08030000  0.05530000  1
  H  H74  1  0.66060000  0.55160000  0.27510000  1
  H  H75  1  0.66330000  0.94450000  0.60900000  1
  H  H76  1  0.68870000  0.46950000  0.38340000  1
  H  H77  1  0.69070000  0.65850000  0.90740000  1
  H  H78  1  0.70010000  0.52680000  0.19680000  1
  H  H79  1  0.70320000  0.07980000  0.79660000  1
  H  H80  1  0.70520000  0.47460000  0.82310000  1
  H  H81  1  0.72090000  0.32260000  0.94250000  1
  H  H82  1  0.72480000  0.94030000  0.19540000  1
  H  H83  1  0.73270000  0.45950000  0.56430000  1
  H  H84  1  0.73520000  0.33780000  0.41200000  1
  H  H85  1  0.73600000  0.10830000  0.72210000  1
  H  H86  1  0.74580000  0.78630000  0.18040000  1
  H  H87  1  0.77870000  0.89430000  0.74230000  1
  H  H88  1  0.78620000  0.42100000  0.21120000  1
  H  H89  1  0.78630000  0.29240000  0.29510000  1
  H  H90  1  0.80560000  0.66280000  0.11580000  1
  H  H91  1  0.82360000  0.96630000  0.18430000  1
  H  H92  1  0.82800000  0.00970000  0.81630000  1
  H  H93  1  0.83680000  0.44180000  0.48720000  1
  H  H94  1  0.83680000  0.82950000  0.07090000  1
  H  H95  1  0.84110000  0.56210000  0.40360000  1
  H  H96  1  0.85520000  0.67970000  0.04880000  1
  H  H97  1  0.86480000  0.31250000  0.07880000  1
  H  H98  1  0.88890000  0.52410000  0.28440000  1
  H  H99  1  0.90530000  0.83350000  0.18650000  1
  H  H100  1  0.93130000  0.38910000  0.30440000  1
  H  H101  1  0.97150000  0.47580000  0.41610000  1
  C  C102  1  0.09010000  0.69460000  0.56540000  1
  C  C103  1  0.09280000  0.57640000  0.65350000  1
  C  C104  1  0.12890000  0.81000000  0.83060000  1
  C  C105  1  0.15700000  0.65100000  0.63300000  1
  C  C106  1  0.15850000  0.52900000  0.71390000  1
  C  C107  1  0.16620000  0.19920000  0.88130000  1
  C  C108  1  0.19700000  0.30980000  0.93460000  1
  C  C109  1  0.20610000  0.73350000  0.95430000  1
  C  C110  1  0.21060000  0.04110000  0.25860000  1
  C  C111  1  0.21140000  0.07200000  0.79100000  1
  C  C112  1  0.21600000  0.60890000  0.58800000  1
  C  C113  1  0.22440000  0.80540000  0.92240000  1
  C  C114  1  0.22530000  0.34930000  0.37750000  1
  C  C115  1  0.27540000  0.43920000  0.72730000  1
  C  C116  1  0.28130000  0.56230000  0.65320000  1
  C  C117  1  0.29240000  0.72750000  0.03640000  1
  C  C118  1  0.30530000  0.42870000  0.38120000  1
  C  C119  1  0.31170000  0.36500000  0.04030000  1
  C  C120  1  0.31420000  0.52610000  0.41680000  1
  C  C121  1  0.31820000  0.94020000  0.27840000  1
  C  C122  1  0.32900000  0.87230000  0.96940000  1
  C  C123  1  0.33730000  0.47960000  0.08830000  1
  C  C124  1  0.35670000  0.22630000  0.96290000  1
  C  C125  1  0.36750000  0.97530000  0.56680000  1
  C  C126  1  0.37480000  0.40830000  0.34870000  1
  C  C127  1  0.39190000  0.60300000  0.42480000  1
  C  C128  1  0.39510000  0.33930000  0.02130000  1
  C  C129  1  0.39740000  0.79550000  0.08650000  1
  C  C130  1  0.40500000  0.11870000  0.33210000  1
  C  C131  1  0.41590000  0.86960000  0.05290000  1
  C  C132  1  0.42660000  0.93820000  0.34360000  1
  C  C133  1  0.45050000  0.48280000  0.35500000  1
  C  C134  1  0.45810000  0.33660000  0.59850000  1
  C  C135  1  0.45990000  0.58080000  0.39190000  1
  C  C136  1  0.47980000  0.97760000  0.63880000  1
  C  C137  1  0.48220000  0.87640000  0.59720000  1
  C  C138  1  0.49230000  0.79240000  0.17790000  1
  C  C139  1  0.50770000  0.20760000  0.82210000  1
  C  C140  1  0.51780000  0.12360000  0.40280000  1
  C  C141  1  0.52020000  0.02240000  0.36120000  1
  C  C142  1  0.54010000  0.41920000  0.60810000  1
  C  C143  1  0.54190000  0.66340000  0.40150000  1
  C  C144  1  0.54950000  0.51720000  0.64500000  1
  C  C145  1  0.57340000  0.06180000  0.65640000  1
  C  C146  1  0.58410000  0.13040000  0.94710000  1
  C  C147  1  0.59500000  0.88130000  0.66790000  1
  C  C148  1  0.60260000  0.20450000  0.91350000  1
  C  C149  1  0.60490000  0.66070000  0.97870000  1
  C  C150  1  0.60810000  0.39700000  0.57520000  1
  C  C151  1  0.62520000  0.59170000  0.65130000  1
  C  C152  1  0.63250000  0.02470000  0.43320000  1
  C  C153  1  0.64330000  0.77370000  0.03710000  1
  C  C154  1  0.66270000  0.52040000  0.91170000  1
  C  C155  1  0.67100000  0.12770000  0.03060000  1
  C  C156  1  0.68180000  0.05980000  0.72160000  1
  C  C157  1  0.68580000  0.47390000  0.58320000  1
  C  C158  1  0.68830000  0.63500000  0.95970000  1
  C  C159  1  0.69470000  0.57130000  0.61880000  1
  C  C160  1  0.70760000  0.27250000  0.96360000  1
  C  C161  1  0.71870000  0.43770000  0.34680000  1
  C  C162  1  0.72460000  0.56080000  0.27270000  1
  C  C163  1  0.77470000  0.65070000  0.62250000  1
  C  C164  1  0.77560000  0.19460000  0.07760000  1
  C  C165  1  0.78400000  0.39110000  0.41200000  1
  C  C166  1  0.78860000  0.92800000  0.20900000  1
  C  C167  1  0.78940000  0.95890000  0.74140000  1
  C  C168  1  0.79390000  0.26650000  0.04570000  1
  C  C169  1  0.80300000  0.69020000  0.06540000  1
  C  C170  1  0.83380000  0.80080000  0.11870000  1
  C  C171  1  0.84150000  0.47100000  0.28610000  1
  C  C172  1  0.84300000  0.34900000  0.36700000  1
  C  C173  1  0.87110000  0.19000000  0.16940000  1
  C  C174  1  0.90720000  0.42360000  0.34650000  1
  C  C175  1  0.90990000  0.30540000  0.43460000  1
  N  N176  1  0.21180000  0.48650000  0.66440000  1
  N  N177  1  0.24800000  0.18130000  0.85820000  1
  N  N178  1  0.32000000  0.04100000  0.32290000  1
  N  N179  1  0.68000000  0.95900000  0.67710000  1
  N  N180  1  0.75200000  0.81870000  0.14180000  1
  N  N181  1  0.78820000  0.51350000  0.33560000  1
  O  O182  1  0.00280000  0.31990000  0.45020000  1
  O  O183  1  0.02320000  0.02690000  0.23550000  1
  O  O184  1  0.03380000  0.76370000  0.80190000  1
  O  O185  1  0.04610000  0.08060000  0.62770000  1
  O  O186  1  0.05640000  0.91030000  0.59670000  1
  O  O187  1  0.09530000  0.29030000  0.67420000  1
  O  O188  1  0.11270000  0.92030000  0.31650000  1
  O  O189  1  0.12970000  0.74350000  0.52920000  1
  O  O190  1  0.14890000  0.86010000  0.78290000  1
  O  O191  1  0.17450000  0.25480000  0.56090000  1
  O  O192  1  0.18130000  0.03840000  0.59140000  1
  O  O193  1  0.18260000  0.37480000  0.42730000  1
  O  O194  1  0.18630000  0.10810000  0.42080000  1
  O  O195  1  0.20030000  0.25740000  0.32270000  1
  O  O196  1  0.27810000  0.50790000  0.11180000  1
  O  O197  1  0.27910000  0.27570000  0.74730000  1
  O  O198  1  0.28650000  0.90250000  0.53890000  1
  O  O199  1  0.36360000  0.04460000  0.53860000  1
  O  O200  1  0.40520000  0.35850000  0.63900000  1
  O  O201  1  0.41490000  0.13890000  0.77300000  1
  O  O202  1  0.42280000  0.53180000  0.10650000  1
  O  O203  1  0.44330000  0.24770000  0.55510000  1
  O  O204  1  0.47620000  0.72790000  0.20910000  1
  O  O205  1  0.52380000  0.27210000  0.79090000  1
  O  O206  1  0.55670000  0.75230000  0.44490000  1
  O  O207  1  0.57720000  0.46820000  0.89350000  1
  O  O208  1  0.58510000  0.86110000  0.22700000  1
  O  O209  1  0.59480000  0.64150000  0.36100000  1
  O  O210  1  0.63640000  0.95540000  0.46140000  1
  O  O211  1  0.71350000  0.09750000  0.46110000  1
  O  O212  1  0.72090000  0.72430000  0.25270000  1
  O  O213  1  0.72190000  0.49210000  0.88820000  1
  O  O214  1  0.79970000  0.74260000  0.67730000  1
  O  O215  1  0.81370000  0.89190000  0.57920000  1
  O  O216  1  0.81740000  0.62520000  0.57270000  1
  O  O217  1  0.81870000  0.96160000  0.40860000  1
  O  O218  1  0.82550000  0.74520000  0.43910000  1
  O  O219  1  0.85110000  0.13990000  0.21710000  1
  O  O220  1  0.87030000  0.25650000  0.47080000  1
  O  O221  1  0.88730000  0.07970000  0.68350000  1
  O  O222  1  0.90470000  0.70970000  0.32580000  1
  O  O223  1  0.94360000  0.08970000  0.40330000  1
  O  O224  1  0.95390000  0.91940000  0.37230000  1
  O  O225  1  0.96620000  0.23630000  0.19810000  1
  O  O226  1  0.97680000  0.97310000  0.76450000  1
  O  O227  1  0.99720000  0.68010000  0.54980000  1
