# generated using pymatgen
data_Sr2CdH8C16(NO7)2
_symmetry_space_group_name_H-M   'P 1'
_cell_length_a   13.21420000
_cell_length_b   17.49380000
_cell_length_c   17.49380000
_cell_angle_alpha   90.00000000
_cell_angle_beta   90.00000000
_cell_angle_gamma   90.00000000
_symmetry_Int_Tables_number   1
_chemical_formula_structural   Sr2CdH8C16(NO7)2
_chemical_formula_sum   'Sr8 Cd4 H32 C64 N8 O56'
_cell_volume   4043.98177655
_cell_formula_units_Z   4
loop_
 _symmetry_equiv_pos_site_id
 _symmetry_equiv_pos_as_xyz
  1  'x, y, z'
loop_
 _atom_site_type_symbol
 _atom_site_label
 _atom_site_symmetry_multiplicity
 _atom_site_fract_x
 _atom_site_fract_y
 _atom_site_fract_z
 _atom_site_occupancy
  Sr  Sr0  1  0.05332000  0.86070000  0.61179000  1
  Sr  Sr1  1  0.19668000  0.63930000  0.11179000  1
  Sr  Sr2  1  0.30332000  0.88821000  0.36070000  1
  Sr  Sr3  1  0.44668000  0.38821000  0.13930000  1
  Sr  Sr4  1  0.55332000  0.13930000  0.38821000  1
  Sr  Sr5  1  0.69668000  0.36070000  0.88821000  1
  Sr  Sr6  1  0.80332000  0.11179000  0.63930000  1
  Sr  Sr7  1  0.94668000  0.61179000  0.86070000  1
  Cd  Cd8  1  0.00000000  0.66520000  0.66520000  1
  Cd  Cd9  1  0.25000000  0.83480000  0.16520000  1
  Cd  Cd10  1  0.50000000  0.33480000  0.33480000  1
  Cd  Cd11  1  0.75000000  0.16520000  0.83480000  1
  H  H12  1  0.04960000  0.21800000  0.68620000  1
  H  H13  1  0.07740000  0.21090000  0.12230000  1
  H  H14  1  0.07830000  0.75830000  0.41300000  1
  H  H15  1  0.08610000  0.08020000  0.12070000  1
  H  H16  1  0.16390000  0.41980000  0.62070000  1
  H  H17  1  0.17170000  0.74170000  0.91300000  1
  H  H18  1  0.17260000  0.28910000  0.62230000  1
  H  H19  1  0.20040000  0.28200000  0.18620000  1
  H  H20  1  0.29960000  0.81380000  0.71800000  1
  H  H21  1  0.32740000  0.37770000  0.71090000  1
  H  H22  1  0.32830000  0.08700000  0.25830000  1
  H  H23  1  0.33610000  0.37930000  0.58020000  1
  H  H24  1  0.41390000  0.87930000  0.91980000  1
  H  H25  1  0.42170000  0.58700000  0.24170000  1
  H  H26  1  0.42260000  0.87770000  0.78910000  1
  H  H27  1  0.45040000  0.31380000  0.78200000  1
  H  H28  1  0.54960000  0.78200000  0.31380000  1
  H  H29  1  0.57740000  0.78910000  0.87770000  1
  H  H30  1  0.57830000  0.24170000  0.58700000  1
  H  H31  1  0.58610000  0.91980000  0.87930000  1
  H  H32  1  0.66390000  0.58020000  0.37930000  1
  H  H33  1  0.67170000  0.25830000  0.08700000  1
  H  H34  1  0.67260000  0.71090000  0.37770000  1
  H  H35  1  0.70040000  0.71800000  0.81380000  1
  H  H36  1  0.79960000  0.18620000  0.28200000  1
  H  H37  1  0.82740000  0.62230000  0.28910000  1
  H  H38  1  0.82830000  0.91300000  0.74170000  1
  H  H39  1  0.83610000  0.62070000  0.41980000  1
  H  H40  1  0.91390000  0.12070000  0.08020000  1
  H  H41  1  0.92170000  0.41300000  0.75830000  1
  H  H42  1  0.92260000  0.12230000  0.21090000  1
  H  H43  1  0.95040000  0.68620000  0.21800000  1
  C  C44  1  0.02650000  0.72970000  0.30890000  1
  C  C45  1  0.02890000  0.73020000  0.38760000  1
  C  C46  1  0.03360000  0.51540000  0.68660000  1
  C  C47  1  0.04140000  0.42900000  0.68950000  1
  C  C48  1  0.04810000  0.27110000  0.68790000  1
  C  C49  1  0.10570000  0.77080000  0.26370000  1
  C  C50  1  0.11660000  0.39170000  0.64830000  1
  C  C51  1  0.12090000  0.31400000  0.64850000  1
  C  C52  1  0.12910000  0.18600000  0.14850000  1
  C  C53  1  0.13340000  0.10830000  0.14830000  1
  C  C54  1  0.14430000  0.72920000  0.76370000  1
  C  C55  1  0.20190000  0.22890000  0.18790000  1
  C  C56  1  0.20860000  0.07100000  0.18950000  1
  C  C57  1  0.21640000  0.98460000  0.18660000  1
  C  C58  1  0.22110000  0.76980000  0.88760000  1
  C  C59  1  0.22350000  0.77030000  0.80890000  1
  C  C60  1  0.27650000  0.19110000  0.22970000  1
  C  C61  1  0.27890000  0.11240000  0.23020000  1
  C  C62  1  0.28360000  0.81340000  0.01540000  1
  C  C63  1  0.29140000  0.81050000  0.92900000  1
  C  C64  1  0.29810000  0.81210000  0.77110000  1
  C  C65  1  0.35570000  0.23630000  0.27080000  1
  C  C66  1  0.36660000  0.85170000  0.89170000  1
  C  C67  1  0.37090000  0.85150000  0.81400000  1
  C  C68  1  0.37910000  0.35150000  0.68600000  1
  C  C69  1  0.38340000  0.35170000  0.60830000  1
  C  C70  1  0.39430000  0.73630000  0.22920000  1
  C  C71  1  0.45190000  0.31210000  0.72890000  1
  C  C72  1  0.45860000  0.31050000  0.57100000  1
  C  C73  1  0.46640000  0.31340000  0.48460000  1
  C  C74  1  0.47110000  0.61240000  0.26980000  1
  C  C75  1  0.47350000  0.69110000  0.27030000  1
  C  C76  1  0.52650000  0.27030000  0.69110000  1
  C  C77  1  0.52890000  0.26980000  0.61240000  1
  C  C78  1  0.53360000  0.48460000  0.31340000  1
  C  C79  1  0.54140000  0.57100000  0.31050000  1
  C  C80  1  0.54810000  0.72890000  0.31210000  1
  C  C81  1  0.60570000  0.22920000  0.73630000  1
  C  C82  1  0.61660000  0.60830000  0.35170000  1
  C  C83  1  0.62090000  0.68600000  0.35150000  1
  C  C84  1  0.62910000  0.81400000  0.85150000  1
  C  C85  1  0.63340000  0.89170000  0.85170000  1
  C  C86  1  0.64430000  0.27080000  0.23630000  1
  C  C87  1  0.70190000  0.77110000  0.81210000  1
  C  C88  1  0.70860000  0.92900000  0.81050000  1
  C  C89  1  0.71640000  0.01540000  0.81340000  1
  C  C90  1  0.72110000  0.23020000  0.11240000  1
  C  C91  1  0.72350000  0.22970000  0.19110000  1
  C  C92  1  0.77650000  0.80890000  0.77030000  1
  C  C93  1  0.77890000  0.88760000  0.76980000  1
  C  C94  1  0.78360000  0.18660000  0.98460000  1
  C  C95  1  0.79140000  0.18950000  0.07100000  1
  C  C96  1  0.79810000  0.18790000  0.22890000  1
  C  C97  1  0.85570000  0.76370000  0.72920000  1
  C  C98  1  0.86660000  0.14830000  0.10830000  1
  C  C99  1  0.87090000  0.14850000  0.18600000  1
  C  C100  1  0.87910000  0.64850000  0.31400000  1
  C  C101  1  0.88340000  0.64830000  0.39170000  1
  C  C102  1  0.89430000  0.26370000  0.77080000  1
  C  C103  1  0.95190000  0.68790000  0.27110000  1
  C  C104  1  0.95860000  0.68950000  0.42900000  1
  C  C105  1  0.96640000  0.68660000  0.51540000  1
  C  C106  1  0.97110000  0.38760000  0.73020000  1
  C  C107  1  0.97350000  0.30890000  0.72970000  1
  N  N108  1  0.01180000  0.03790000  0.60250000  1
  N  N109  1  0.23820000  0.46210000  0.10250000  1
  N  N110  1  0.26180000  0.89750000  0.53790000  1
  N  N111  1  0.48820000  0.39750000  0.96210000  1
  N  N112  1  0.51180000  0.96210000  0.39750000  1
  N  N113  1  0.73820000  0.53790000  0.89750000  1
  N  N114  1  0.76180000  0.10250000  0.46210000  1
  N  N115  1  0.98820000  0.60250000  0.03790000  1
  O  O116  1  0.00240000  0.10880000  0.60470000  1
  O  O117  1  0.03580000  0.72490000  0.54730000  1
  O  O118  1  0.05950000  0.62750000  0.99730000  1
  O  O119  1  0.08830000  0.00800000  0.57670000  1
  O  O120  1  0.09150000  0.68020000  0.79730000  1
  O  O121  1  0.09210000  0.55170000  0.64510000  1
  O  O122  1  0.11830000  0.75360000  0.19470000  1
  O  O123  1  0.13170000  0.74640000  0.69470000  1
  O  O124  1  0.15790000  0.94830000  0.14510000  1
  O  O125  1  0.15850000  0.81980000  0.29730000  1
  O  O126  1  0.16170000  0.49200000  0.07670000  1
  O  O127  1  0.19050000  0.87250000  0.49730000  1
  O  O128  1  0.21420000  0.77510000  0.04730000  1
  O  O129  1  0.24760000  0.39120000  0.10470000  1
  O  O130  1  0.25240000  0.89530000  0.60880000  1
  O  O131  1  0.28580000  0.95270000  0.22490000  1
  O  O132  1  0.30950000  0.50270000  0.12750000  1
  O  O133  1  0.33830000  0.92330000  0.50800000  1
  O  O134  1  0.34150000  0.70270000  0.18020000  1
  O  O135  1  0.34210000  0.85490000  0.05170000  1
  O  O136  1  0.36830000  0.30530000  0.25360000  1
  O  O137  1  0.38170000  0.80530000  0.24640000  1
  O  O138  1  0.40790000  0.35490000  0.44830000  1
  O  O139  1  0.40850000  0.20270000  0.31980000  1
  O  O140  1  0.41170000  0.42330000  0.99200000  1
  O  O141  1  0.44050000  0.00270000  0.37250000  1
  O  O142  1  0.46420000  0.45270000  0.27510000  1
  O  O143  1  0.49760000  0.39530000  0.89120000  1
  O  O144  1  0.50240000  0.89120000  0.39530000  1
  O  O145  1  0.53580000  0.27510000  0.45270000  1
  O  O146  1  0.55950000  0.37250000  0.00270000  1
  O  O147  1  0.58830000  0.99200000  0.42330000  1
  O  O148  1  0.59150000  0.31980000  0.20270000  1
  O  O149  1  0.59210000  0.44830000  0.35490000  1
  O  O150  1  0.61830000  0.24640000  0.80530000  1
  O  O151  1  0.63170000  0.25360000  0.30530000  1
  O  O152  1  0.65790000  0.05170000  0.85490000  1
  O  O153  1  0.65850000  0.18020000  0.70270000  1
  O  O154  1  0.66170000  0.50800000  0.92330000  1
  O  O155  1  0.69050000  0.12750000  0.50270000  1
  O  O156  1  0.71420000  0.22490000  0.95270000  1
  O  O157  1  0.74760000  0.60880000  0.89530000  1
  O  O158  1  0.75240000  0.10470000  0.39120000  1
  O  O159  1  0.78580000  0.04730000  0.77510000  1
  O  O160  1  0.80950000  0.49730000  0.87250000  1
  O  O161  1  0.83830000  0.07670000  0.49200000  1
  O  O162  1  0.84150000  0.29730000  0.81980000  1
  O  O163  1  0.84210000  0.14510000  0.94830000  1
  O  O164  1  0.86830000  0.69470000  0.74640000  1
  O  O165  1  0.88170000  0.19470000  0.75360000  1
  O  O166  1  0.90790000  0.64510000  0.55170000  1
  O  O167  1  0.90850000  0.79730000  0.68020000  1
  O  O168  1  0.91170000  0.57670000  0.00800000  1
  O  O169  1  0.94050000  0.99730000  0.62750000  1
  O  O170  1  0.96420000  0.54730000  0.72490000  1
  O  O171  1  0.99760000  0.60470000  0.10880000  1
