# generated using pymatgen
data_Fe6Co6H60C108O31
_symmetry_space_group_name_H-M   'P 1'
_cell_length_a   18.56600000
_cell_length_b   36.15500000
_cell_length_c   48.72500000
_cell_angle_alpha   90.00000000
_cell_angle_beta   90.00000000
_cell_angle_gamma   90.00000000
_symmetry_Int_Tables_number   1
_chemical_formula_structural   Fe6Co6H60C108O31
_chemical_formula_sum   'Fe24 Co24 H240 C432 O124'
_cell_volume   32706.83799425
_cell_formula_units_Z   4
loop_
 _symmetry_equiv_pos_site_id
 _symmetry_equiv_pos_as_xyz
  1  'x, y, z'
loop_
 _atom_site_type_symbol
 _atom_site_label
 _atom_site_symmetry_multiplicity
 _atom_site_fract_x
 _atom_site_fract_y
 _atom_site_fract_z
 _atom_site_occupancy
  Fe  Fe0  1  0.96567000  0.98206000  0.29059000  1
  Fe  Fe1  1  0.90324000  0.97026000  0.76205000  1
  Fe  Fe2  1  0.02560000  0.95751000  0.22930000  1
  Fe  Fe3  1  0.47920000  0.79177000  0.54499000  1
  Fe  Fe4  1  0.40400000  0.78390000  0.01439000  1
  Fe  Fe5  1  0.53054000  0.76621000  0.48353000  1
  Fe  Fe6  1  0.53054000  0.73379000  0.98353000  1
  Fe  Fe7  1  0.40400000  0.71610000  0.51439000  1
  Fe  Fe8  1  0.47920000  0.70823000  0.04499000  1
  Fe  Fe9  1  0.02560000  0.54249000  0.72930000  1
  Fe  Fe10  1  0.90324000  0.52974000  0.26205000  1
  Fe  Fe11  1  0.96567000  0.51794000  0.79059000  1
  Fe  Fe12  1  0.03433000  0.48206000  0.29059000  1
  Fe  Fe13  1  0.09676000  0.47026000  0.76205000  1
  Fe  Fe14  1  0.97440000  0.45751000  0.22930000  1
  Fe  Fe15  1  0.52080000  0.29177000  0.54499000  1
  Fe  Fe16  1  0.59600000  0.28390000  0.01439000  1
  Fe  Fe17  1  0.46946000  0.26621000  0.48353000  1
  Fe  Fe18  1  0.46946000  0.23379000  0.98353000  1
  Fe  Fe19  1  0.59600000  0.21610000  0.51439000  1
  Fe  Fe20  1  0.52080000  0.20823000  0.04499000  1
  Fe  Fe21  1  0.97440000  0.04249000  0.72930000  1
  Fe  Fe22  1  0.09676000  0.02974000  0.26205000  1
  Fe  Fe23  1  0.03433000  0.01794000  0.79059000  1
  Co  Co24  1  0.95522000  0.98400000  0.29044000  1
  Co  Co25  1  0.91328000  0.96680000  0.75867000  1
  Co  Co26  1  0.02440000  0.96263000  0.22959000  1
  Co  Co27  1  0.47420000  0.78721000  0.54496000  1
  Co  Co28  1  0.41260000  0.77835000  0.01520000  1
  Co  Co29  1  0.54180000  0.76640000  0.48251000  1
  Co  Co30  1  0.54180000  0.73360000  0.98251000  1
  Co  Co31  1  0.41260000  0.72165000  0.51520000  1
  Co  Co32  1  0.47420000  0.71279000  0.04496000  1
  Co  Co33  1  0.02440000  0.53737000  0.72959000  1
  Co  Co34  1  0.91328000  0.53320000  0.25867000  1
  Co  Co35  1  0.95522000  0.51600000  0.79044000  1
  Co  Co36  1  0.04478000  0.48400000  0.29044000  1
  Co  Co37  1  0.08672000  0.46680000  0.75867000  1
  Co  Co38  1  0.97560000  0.46263000  0.22959000  1
  Co  Co39  1  0.52580000  0.28721000  0.54496000  1
  Co  Co40  1  0.58740000  0.27835000  0.01520000  1
  Co  Co41  1  0.45820000  0.26640000  0.48251000  1
  Co  Co42  1  0.45820000  0.23360000  0.98251000  1
  Co  Co43  1  0.58740000  0.22165000  0.51520000  1
  Co  Co44  1  0.52580000  0.21279000  0.04496000  1
  Co  Co45  1  0.97560000  0.03737000  0.72959000  1
  Co  Co46  1  0.08672000  0.03320000  0.25867000  1
  Co  Co47  1  0.04478000  0.01600000  0.79044000  1
  H  H48  1  0.68120000  0.99840000  0.74140000  1
  H  H49  1  0.58760000  0.98950000  0.97490000  1
  H  H50  1  0.42590000  0.98210000  0.22380000  1
  H  H51  1  0.02890000  0.97560000  0.65520000  1
  H  H52  1  0.08880000  0.96830000  0.36680000  1
  H  H53  1  0.16800000  0.96650000  0.40350000  1
  H  H54  1  0.73910000  0.95650000  0.26630000  1
  H  H55  1  0.36950000  0.95510000  0.50230000  1
  H  H56  1  0.71110000  0.95430000  0.86860000  1
  H  H57  1  0.79000000  0.95210000  0.83330000  1
  H  H58  1  0.28790000  0.95180000  0.42260000  1
  H  H59  1  0.52420000  0.94110000  0.97240000  1
  H  H60  1  0.52820000  0.94010000  0.22720000  1
  H  H61  1  0.71100000  0.93740000  0.91910000  1
  H  H62  1  0.82990000  0.93620000  0.19330000  1
  H  H63  1  0.04370000  0.93160000  0.61870000  1
  H  H64  1  0.62950000  0.92890000  0.25100000  1
  H  H65  1  0.71370000  0.91680000  0.17500000  1
  H  H66  1  0.15170000  0.91680000  0.81640000  1
  H  H67  1  0.40030000  0.91270000  0.42700000  1
  H  H68  1  0.88230000  0.90690000  0.68780000  1
  H  H69  1  0.22510000  0.90430000  0.22160000  1
  H  H70  1  0.42220000  0.90230000  0.52020000  1
  H  H71  1  0.41550000  0.89390000  0.16440000  1
  H  H72  1  0.32560000  0.89120000  0.19340000  1
  H  H73  1  0.44570000  0.88960000  0.12060000  1
  H  H74  1  0.69960000  0.88880000  0.94480000  1
  H  H75  1  0.49170000  0.88700000  0.99750000  1
  H  H76  1  0.03910000  0.88660000  0.32940000  1
  H  H77  1  0.63140000  0.88060000  0.16740000  1
  H  H78  1  0.08170000  0.87010000  0.60470000  1
  H  H79  1  0.86680000  0.86960000  0.60100000  1
  H  H80  1  0.16880000  0.86770000  0.56930000  1
  H  H81  1  0.97340000  0.86760000  0.79020000  1
  H  H82  1  0.89410000  0.86620000  0.65320000  1
  H  H83  1  0.45070000  0.86050000  0.44560000  1
  H  H84  1  0.20250000  0.86040000  0.82790000  1
  H  H85  1  0.42640000  0.85210000  0.08270000  1
  H  H86  1  0.07710000  0.84560000  0.25370000  1
  H  H87  1  0.09630000  0.83630000  0.34840000  1
  H  H88  1  0.28320000  0.83420000  0.57350000  1
  H  H89  1  0.66250000  0.83350000  0.96460000  1
  H  H90  1  0.77930000  0.82180000  0.59630000  1
  H  H91  1  0.19860000  0.81530000  0.85910000  1
  H  H92  1  0.57980000  0.81450000  0.15220000  1
  H  H93  1  0.02540000  0.81050000  0.79860000  1
  H  H94  1  0.67260000  0.80390000  0.57810000  1
  H  H95  1  0.97660000  0.80350000  0.54990000  1
  H  H96  1  0.87500000  0.80240000  0.52350000  1
  H  H97  1  0.19650000  0.79790000  0.35700000  1
  H  H98  1  0.20530000  0.79770000  0.90510000  1
  H  H99  1  0.76430000  0.79430000  0.50530000  1
  H  H100  1  0.27020000  0.79300000  0.94720000  1
  H  H101  1  0.12330000  0.79300000  0.27370000  1
  H  H102  1  0.32390000  0.78470000  0.37270000  1
  H  H103  1  0.39770000  0.78260000  0.41140000  1
  H  H104  1  0.07580000  0.77870000  0.54340000  1
  H  H105  1  0.56240000  0.77650000  0.11410000  1
  H  H106  1  0.09100000  0.75990000  0.79880000  1
  H  H107  1  0.18510000  0.75010000  0.03510000  1
  H  H108  1  0.18510000  0.74990000  0.53510000  1
  H  H109  1  0.09100000  0.74010000  0.29880000  1
  H  H110  1  0.56240000  0.72350000  0.61410000  1
  H  H111  1  0.07580000  0.72130000  0.04340000  1
  H  H112  1  0.39770000  0.71740000  0.91140000  1
  H  H113  1  0.32390000  0.71530000  0.87270000  1
  H  H114  1  0.27020000  0.70700000  0.44720000  1
  H  H115  1  0.12330000  0.70700000  0.77370000  1
  H  H116  1  0.76430000  0.70570000  0.00530000  1
  H  H117  1  0.20530000  0.70230000  0.40510000  1
  H  H118  1  0.19650000  0.70210000  0.85700000  1
  H  H119  1  0.87500000  0.69760000  0.02350000  1
  H  H120  1  0.97660000  0.69650000  0.04990000  1
  H  H121  1  0.67260000  0.69610000  0.07810000  1
  H  H122  1  0.02540000  0.68950000  0.29860000  1
  H  H123  1  0.57980000  0.68550000  0.65220000  1
  H  H124  1  0.19860000  0.68470000  0.35910000  1
  H  H125  1  0.77930000  0.67820000  0.09630000  1
  H  H126  1  0.66250000  0.66650000  0.46460000  1
  H  H127  1  0.28320000  0.66580000  0.07350000  1
  H  H128  1  0.09630000  0.66370000  0.84840000  1
  H  H129  1  0.07710000  0.65440000  0.75370000  1
  H  H130  1  0.42640000  0.64790000  0.58270000  1
  H  H131  1  0.20250000  0.63960000  0.32790000  1
  H  H132  1  0.45070000  0.63950000  0.94560000  1
  H  H133  1  0.89410000  0.63380000  0.15320000  1
  H  H134  1  0.97340000  0.63240000  0.29020000  1
  H  H135  1  0.16880000  0.63230000  0.06930000  1
  H  H136  1  0.86680000  0.63040000  0.10100000  1
  H  H137  1  0.08170000  0.62990000  0.10470000  1
  H  H138  1  0.63140000  0.61940000  0.66740000  1
  H  H139  1  0.03910000  0.61340000  0.82940000  1
  H  H140  1  0.49170000  0.61300000  0.49750000  1
  H  H141  1  0.69960000  0.61120000  0.44480000  1
  H  H142  1  0.44570000  0.61040000  0.62060000  1
  H  H143  1  0.32560000  0.60880000  0.69340000  1
  H  H144  1  0.41550000  0.60610000  0.66440000  1
  H  H145  1  0.42220000  0.59770000  0.02020000  1
  H  H146  1  0.22510000  0.59570000  0.72160000  1
  H  H147  1  0.88230000  0.59310000  0.18780000  1
  H  H148  1  0.40030000  0.58730000  0.92700000  1
  H  H149  1  0.71370000  0.58320000  0.67500000  1
  H  H150  1  0.15170000  0.58320000  0.31640000  1
  H  H151  1  0.62950000  0.57110000  0.75100000  1
  H  H152  1  0.04370000  0.56840000  0.11870000  1
  H  H153  1  0.82990000  0.56380000  0.69330000  1
  H  H154  1  0.71100000  0.56260000  0.41910000  1
  H  H155  1  0.52820000  0.55990000  0.72720000  1
  H  H156  1  0.52420000  0.55890000  0.47240000  1
  H  H157  1  0.28790000  0.54820000  0.92260000  1
  H  H158  1  0.79000000  0.54790000  0.33333333  1
  H  H159  1  0.71110000  0.54570000  0.36860000  1
  H  H160  1  0.36950000  0.54490000  0.00230000  1
  H  H161  1  0.73910000  0.54350000  0.76630000  1
  H  H162  1  0.16800000  0.53350000  0.90350000  1
  H  H163  1  0.08880000  0.53170000  0.86680000  1
  H  H164  1  0.02890000  0.52440000  0.15520000  1
  H  H165  1  0.42590000  0.51790000  0.72380000  1
  H  H166  1  0.58760000  0.51050000  0.47490000  1
  H  H167  1  0.68120000  0.50160000  0.24140000  1
  H  H168  1  0.31880000  0.49840000  0.74140000  1
  H  H169  1  0.41240000  0.48950000  0.97490000  1
  H  H170  1  0.57410000  0.48210000  0.22380000  1
  H  H171  1  0.97110000  0.47560000  0.65520000  1
  H  H172  1  0.91120000  0.46830000  0.36680000  1
  H  H173  1  0.83200000  0.46650000  0.40350000  1
  H  H174  1  0.26090000  0.45650000  0.26630000  1
  H  H175  1  0.63050000  0.45510000  0.50230000  1
  H  H176  1  0.28890000  0.45430000  0.86860000  1
  H  H177  1  0.21000000  0.45210000  0.83330000  1
  H  H178  1  0.71210000  0.45180000  0.42260000  1
  H  H179  1  0.47580000  0.44110000  0.97240000  1
  H  H180  1  0.47180000  0.44010000  0.22720000  1
  H  H181  1  0.28900000  0.43740000  0.91910000  1
  H  H182  1  0.17010000  0.43620000  0.19330000  1
  H  H183  1  0.95630000  0.43160000  0.61870000  1
  H  H184  1  0.37050000  0.42890000  0.25100000  1
  H  H185  1  0.84830000  0.41680000  0.81640000  1
  H  H186  1  0.28630000  0.41680000  0.17500000  1
  H  H187  1  0.59970000  0.41270000  0.42700000  1
  H  H188  1  0.11770000  0.40690000  0.68780000  1
  H  H189  1  0.77490000  0.40430000  0.22160000  1
  H  H190  1  0.57780000  0.40230000  0.52020000  1
  H  H191  1  0.58450000  0.39390000  0.16440000  1
  H  H192  1  0.67440000  0.39120000  0.19340000  1
  H  H193  1  0.55430000  0.38960000  0.12060000  1
  H  H194  1  0.30040000  0.38880000  0.94480000  1
  H  H195  1  0.50830000  0.38700000  0.99750000  1
  H  H196  1  0.96090000  0.38660000  0.32940000  1
  H  H197  1  0.36860000  0.38060000  0.16740000  1
  H  H198  1  0.91830000  0.37010000  0.60470000  1
  H  H199  1  0.13320000  0.36960000  0.60100000  1
  H  H200  1  0.83120000  0.36770000  0.56930000  1
  H  H201  1  0.02660000  0.36760000  0.79020000  1
  H  H202  1  0.10590000  0.36620000  0.65320000  1
  H  H203  1  0.54930000  0.36050000  0.44560000  1
  H  H204  1  0.79750000  0.36040000  0.82790000  1
  H  H205  1  0.57360000  0.35210000  0.08270000  1
  H  H206  1  0.92290000  0.34560000  0.25370000  1
  H  H207  1  0.90370000  0.33630000  0.34840000  1
  H  H208  1  0.71680000  0.33420000  0.57350000  1
  H  H209  1  0.33750000  0.33350000  0.96460000  1
  H  H210  1  0.22070000  0.32180000  0.59630000  1
  H  H211  1  0.80140000  0.31530000  0.85910000  1
  H  H212  1  0.42020000  0.31450000  0.15220000  1
  H  H213  1  0.97460000  0.31050000  0.79860000  1
  H  H214  1  0.32740000  0.30390000  0.57810000  1
  H  H215  1  0.02340000  0.30350000  0.54990000  1
  H  H216  1  0.12500000  0.30240000  0.52350000  1
  H  H217  1  0.80350000  0.29790000  0.35700000  1
  H  H218  1  0.79470000  0.29770000  0.90510000  1
  H  H219  1  0.23570000  0.29430000  0.50530000  1
  H  H220  1  0.87670000  0.29300000  0.27370000  1
  H  H221  1  0.72980000  0.29300000  0.94720000  1
  H  H222  1  0.67610000  0.28470000  0.37270000  1
  H  H223  1  0.60230000  0.28260000  0.41140000  1
  H  H224  1  0.92420000  0.27870000  0.54340000  1
  H  H225  1  0.43760000  0.27650000  0.11410000  1
  H  H226  1  0.90900000  0.25990000  0.79880000  1
  H  H227  1  0.81490000  0.25010000  0.03510000  1
  H  H228  1  0.81490000  0.24990000  0.53510000  1
  H  H229  1  0.90900000  0.24010000  0.29880000  1
  H  H230  1  0.43760000  0.22350000  0.61410000  1
  H  H231  1  0.92420000  0.22130000  0.04340000  1
  H  H232  1  0.60230000  0.21740000  0.91140000  1
  H  H233  1  0.67610000  0.21530000  0.87270000  1
  H  H234  1  0.87670000  0.20700000  0.77370000  1
  H  H235  1  0.72980000  0.20700000  0.44720000  1
  H  H236  1  0.23570000  0.20570000  0.00530000  1
  H  H237  1  0.79470000  0.20230000  0.40510000  1
  H  H238  1  0.80350000  0.20210000  0.85700000  1
  H  H239  1  0.12500000  0.19760000  0.02350000  1
  H  H240  1  0.02340000  0.19650000  0.04990000  1
  H  H241  1  0.32740000  0.19610000  0.07810000  1
  H  H242  1  0.97460000  0.18950000  0.29860000  1
  H  H243  1  0.42020000  0.18550000  0.65220000  1
  H  H244  1  0.80140000  0.18470000  0.35910000  1
  H  H245  1  0.22070000  0.17820000  0.09630000  1
  H  H246  1  0.33750000  0.16650000  0.46460000  1
  H  H247  1  0.71680000  0.16580000  0.07350000  1
  H  H248  1  0.90370000  0.16370000  0.84840000  1
  H  H249  1  0.92290000  0.15440000  0.75370000  1
  H  H250  1  0.57360000  0.14790000  0.58270000  1
  H  H251  1  0.79750000  0.13960000  0.32790000  1
  H  H252  1  0.54930000  0.13950000  0.94560000  1
  H  H253  1  0.10590000  0.13380000  0.15320000  1
  H  H254  1  0.02660000  0.13240000  0.29020000  1
  H  H255  1  0.83120000  0.13230000  0.06930000  1
  H  H256  1  0.13320000  0.13040000  0.10100000  1
  H  H257  1  0.91830000  0.12990000  0.10470000  1
  H  H258  1  0.36860000  0.11940000  0.66740000  1
  H  H259  1  0.96090000  0.11340000  0.82940000  1
  H  H260  1  0.50830000  0.11300000  0.49750000  1
  H  H261  1  0.30040000  0.11120000  0.44480000  1
  H  H262  1  0.55430000  0.11040000  0.62060000  1
  H  H263  1  0.67440000  0.10880000  0.69340000  1
  H  H264  1  0.58450000  0.10610000  0.66440000  1
  H  H265  1  0.57780000  0.09770000  0.02020000  1
  H  H266  1  0.77490000  0.09570000  0.72160000  1
  H  H267  1  0.11770000  0.09310000  0.18780000  1
  H  H268  1  0.59970000  0.08730000  0.92700000  1
  H  H269  1  0.84830000  0.08320000  0.31640000  1
  H  H270  1  0.28630000  0.08320000  0.67500000  1
  H  H271  1  0.37050000  0.07110000  0.75100000  1
  H  H272  1  0.95630000  0.06840000  0.11870000  1
  H  H273  1  0.17010000  0.06380000  0.69330000  1
  H  H274  1  0.28900000  0.06260000  0.41910000  1
  H  H275  1  0.47180000  0.05990000  0.72720000  1
  H  H276  1  0.47580000  0.05890000  0.47240000  1
  H  H277  1  0.71210000  0.04820000  0.92260000  1
  H  H278  1  0.21000000  0.04790000  0.33333333  1
  H  H279  1  0.28890000  0.04570000  0.36860000  1
  H  H280  1  0.63050000  0.04490000  0.00230000  1
  H  H281  1  0.26090000  0.04350000  0.76630000  1
  H  H282  1  0.83200000  0.03350000  0.90350000  1
  H  H283  1  0.91120000  0.03170000  0.86680000  1
  H  H284  1  0.97110000  0.02440000  0.15520000  1
  H  H285  1  0.57410000  0.01790000  0.72380000  1
  H  H286  1  0.41240000  0.01050000  0.47490000  1
  H  H287  1  0.31880000  0.00160000  0.24140000  1
  C  C288  1  0.85460000  0.99362000  0.84471000  1
  C  C289  1  0.76240000  0.99340000  0.89034000  1
  C  C290  1  0.71550000  0.99297000  0.91531000  1
  C  C291  1  0.90020000  0.99254000  0.82017000  1
  C  C292  1  0.62190000  0.99041000  0.96043000  1
  C  C293  1  0.13050000  0.98349000  0.36683000  1
  C  C294  1  0.17700000  0.98315000  0.38882000  1
  C  C295  1  0.32050000  0.97915000  0.23131000  1
  C  C296  1  0.30610000  0.97486000  0.42894000  1
  C  C297  1  0.35240000  0.97468000  0.45118000  1
  C  C298  1  0.18550000  0.97350000  0.23371000  1
  C  C299  1  0.75170000  0.97030000  0.86864000  1
  C  C300  1  0.79760000  0.96993000  0.84739000  1
  C  C301  1  0.95480000  0.96770000  0.70180000  1
  C  C302  1  0.38440000  0.96698000  0.22181000  1
  C  C303  1  0.25860000  0.96019000  0.22687000  1
  C  C304  1  0.69320000  0.95976000  0.92672000  1
  C  C305  1  0.64630000  0.95763000  0.94874000  1
  C  C306  1  0.86710000  0.95737000  0.24353000  1
  C  C307  1  0.00360000  0.95273000  0.65513000  1
  C  C308  1  0.79590000  0.94725000  0.23214000  1
  C  C309  1  0.73600000  0.94695000  0.24816000  1
  C  C310  1  0.95790000  0.94222000  0.67717000  1
  C  C311  1  0.38470000  0.94147000  0.46146000  1
  C  C312  1  0.38790000  0.93656000  0.49035000  1
  C  C313  1  0.78870000  0.93621000  0.20484000  1
  C  C314  1  0.03730000  0.93449000  0.78727000  1
  C  C315  1  0.66850000  0.93291000  0.23879000  1
  C  C316  1  0.39100000  0.93199000  0.20888000  1
  C  C317  1  0.00950000  0.92690000  0.63272000  1
  C  C318  1  0.66240000  0.92520000  0.21008000  1
  C  C319  1  0.52630000  0.92454000  0.21151000  1
  C  C320  1  0.71830000  0.92452000  0.19356000  1
  C  C321  1  0.62080000  0.92198000  0.95931000  1
  C  C322  1  0.26290000  0.92153000  0.21835000  1
  C  C323  1  0.55430000  0.91984000  0.97206000  1
  C  C324  1  0.45860000  0.91420000  0.20073000  1
  C  C325  1  0.59210000  0.91217000  0.19931000  1
  C  C326  1  0.32570000  0.91198000  0.20530000  1
  C  C327  1  0.91720000  0.91190000  0.67403000  1
  C  C328  1  0.40600000  0.91154000  0.44631000  1
  C  C329  1  0.02140000  0.90661000  0.27704000  1
  C  C330  1  0.41780000  0.90463000  0.50089000  1
  C  C331  1  0.06550000  0.89783000  0.79683000  1
  C  C332  1  0.96910000  0.89703000  0.63101000  1
  C  C333  1  0.45950000  0.89591000  0.17428000  1
  C  C334  1  0.12690000  0.89473000  0.81156000  1
  C  C335  1  0.58820000  0.88992000  0.17526000  1
  C  C336  1  0.65650000  0.88856000  0.95529000  1
  C  C337  1  0.92170000  0.88830000  0.65327000  1
  C  C338  1  0.53020000  0.88671000  0.98465000  1
  C  C339  1  0.52080000  0.88123000  0.16267000  1
  C  C340  1  0.43510000  0.87985000  0.45732000  1
  C  C341  1  0.44150000  0.87629000  0.48468000  1
  C  C342  1  0.05370000  0.87307000  0.28913000  1
  C  C343  1  0.97190000  0.87230000  0.60552000  1
  C  C344  1  0.05850000  0.86819000  0.31771000  1
  C  C345  1  0.46990000  0.86649000  0.11932000  1
  C  C346  1  0.02220000  0.86593000  0.79588000  1
  C  C347  1  0.15580000  0.86145000  0.82001000  1
  C  C348  1  0.03860000  0.86045000  0.59699000  1
  C  C349  1  0.91130000  0.86018000  0.59432000  1
  C  C350  1  0.51610000  0.85652000  0.13926000  1
  C  C351  1  0.63290000  0.85482000  0.96569000  1
  C  C352  1  0.56510000  0.85298000  0.97761000  1
  C  C353  1  0.07920000  0.84386000  0.27315000  1
  C  C354  1  0.45700000  0.84380000  0.09706000  1
  C  C355  1  0.47290000  0.84217000  0.49679000  1
  C  C356  1  0.17250000  0.84166000  0.56728000  1
  C  C357  1  0.09010000  0.83787000  0.32911000  1
  C  C358  1  0.91000000  0.83435000  0.57326000  1
  C  C359  1  0.04010000  0.83281000  0.57591000  1
  C  C360  1  0.05100000  0.83243000  0.80316000  1
  C  C361  1  0.11470000  0.82929000  0.81669000  1
  C  C362  1  0.84220000  0.82429000  0.56058000  1
  C  C363  1  0.24160000  0.82357000  0.56530000  1
  C  C364  1  0.54880000  0.82235000  0.13781000  1
  C  C365  1  0.97550000  0.82113000  0.56437000  1
  C  C366  1  0.11070000  0.81887000  0.56604000  1
  C  C367  1  0.53440000  0.81812000  0.98681000  1
  C  C368  1  0.77660000  0.81789000  0.57709000  1
  C  C369  1  0.10740000  0.81272000  0.28508000  1
  C  C370  1  0.11300000  0.80931000  0.31232000  1
  C  C371  1  0.48880000  0.80849000  0.09552000  1
  C  C372  1  0.83360000  0.80787000  0.53417000  1
  C  C373  1  0.71330000  0.80684000  0.56647000  1
  C  C374  1  0.76850000  0.80010000  0.52422000  1
  C  C375  1  0.70780000  0.79999000  0.53973000  1
  C  C376  1  0.53670000  0.79917000  0.11548000  1
  C  C377  1  0.14150000  0.79340000  0.82720000  1
  C  C378  1  0.18510000  0.79298000  0.85012000  1
  C  C379  1  0.24620000  0.79006000  0.55103000  1
  C  C380  1  0.11820000  0.78959000  0.55073000  1
  C  C381  1  0.63490000  0.78910000  0.52922000  1
  C  C382  1  0.46800000  0.78328000  0.07218000  1
  C  C383  1  0.24350000  0.78040000  0.90675000  1
  C  C384  1  0.28420000  0.77919000  0.93149000  1
  C  C385  1  0.31680000  0.77506000  0.54296000  1
  C  C386  1  0.18450000  0.77474000  0.34905000  1
  C  C387  1  0.18410000  0.77303000  0.54423000  1
  C  C388  1  0.14010000  0.77303000  0.32579000  1
  C  C389  1  0.31440000  0.76741000  0.38690000  1
  C  C390  1  0.35770000  0.76630000  0.41038000  1
  C  C391  1  0.12000000  0.75952000  0.81491000  1
  C  C392  1  0.39250000  0.75742000  0.95580000  1
  C  C393  1  0.21000000  0.75700000  0.86009000  1
  C  C394  1  0.34570000  0.75687000  0.93183000  1
  C  C395  1  0.25830000  0.75674000  0.88477000  1
  C  C396  1  0.25830000  0.74326000  0.38477000  1
  C  C397  1  0.34570000  0.74313000  0.43183000  1
  C  C398  1  0.21000000  0.74300000  0.36009000  1
  C  C399  1  0.39250000  0.74258000  0.45580000  1
  C  C400  1  0.12000000  0.74048000  0.31491000  1
  C  C401  1  0.35770000  0.73370000  0.91038000  1
  C  C402  1  0.31440000  0.73259000  0.88690000  1
  C  C403  1  0.18410000  0.72697000  0.04423000  1
  C  C404  1  0.14010000  0.72697000  0.82579000  1
  C  C405  1  0.18450000  0.72526000  0.84905000  1
  C  C406  1  0.31680000  0.72494000  0.04296000  1
  C  C407  1  0.28420000  0.72081000  0.43149000  1
  C  C408  1  0.24350000  0.71960000  0.40675000  1
  C  C409  1  0.46800000  0.71672000  0.57218000  1
  C  C410  1  0.63490000  0.71090000  0.02922000  1
  C  C411  1  0.11820000  0.71041000  0.05073000  1
  C  C412  1  0.24620000  0.70994000  0.05103000  1
  C  C413  1  0.18510000  0.70702000  0.35012000  1
  C  C414  1  0.14150000  0.70660000  0.32720000  1
  C  C415  1  0.53670000  0.70083000  0.61548000  1
  C  C416  1  0.70780000  0.70001000  0.03973000  1
  C  C417  1  0.76850000  0.69990000  0.02422000  1
  C  C418  1  0.71330000  0.69316000  0.06647000  1
  C  C419  1  0.83360000  0.69213000  0.03417000  1
  C  C420  1  0.48880000  0.69151000  0.59552000  1
  C  C421  1  0.11300000  0.69069000  0.81232000  1
  C  C422  1  0.10740000  0.68728000  0.78508000  1
  C  C423  1  0.77660000  0.68211000  0.07709000  1
  C  C424  1  0.53440000  0.68188000  0.48681000  1
  C  C425  1  0.11070000  0.68113000  0.06604000  1
  C  C426  1  0.97550000  0.67887000  0.06437000  1
  C  C427  1  0.54880000  0.67765000  0.63781000  1
  C  C428  1  0.24160000  0.67643000  0.06530000  1
  C  C429  1  0.84220000  0.67571000  0.06058000  1
  C  C430  1  0.11470000  0.67071000  0.31669000  1
  C  C431  1  0.05100000  0.66757000  0.30316000  1
  C  C432  1  0.04010000  0.66719000  0.07591000  1
  C  C433  1  0.91000000  0.66565000  0.07326000  1
  C  C434  1  0.09010000  0.66213000  0.82911000  1
  C  C435  1  0.17250000  0.65834000  0.06728000  1
  C  C436  1  0.47290000  0.65783000  0.99679000  1
  C  C437  1  0.45700000  0.65620000  0.59706000  1
  C  C438  1  0.07920000  0.65614000  0.77315000  1
  C  C439  1  0.56510000  0.64702000  0.47761000  1
  C  C440  1  0.63290000  0.64518000  0.46569000  1
  C  C441  1  0.51610000  0.64348000  0.63926000  1
  C  C442  1  0.91130000  0.63982000  0.09432000  1
  C  C443  1  0.03860000  0.63955000  0.09699000  1
  C  C444  1  0.15580000  0.63855000  0.32001000  1
  C  C445  1  0.02220000  0.63407000  0.29588000  1
  C  C446  1  0.46990000  0.63351000  0.61932000  1
  C  C447  1  0.05850000  0.63181000  0.81771000  1
  C  C448  1  0.97190000  0.62770000  0.10552000  1
  C  C449  1  0.05370000  0.62693000  0.78913000  1
  C  C450  1  0.44150000  0.62371000  0.98468000  1
  C  C451  1  0.43510000  0.62015000  0.95732000  1
  C  C452  1  0.52080000  0.61877000  0.66267000  1
  C  C453  1  0.53020000  0.61329000  0.48465000  1
  C  C454  1  0.92170000  0.61170000  0.15327000  1
  C  C455  1  0.65650000  0.61144000  0.45529000  1
  C  C456  1  0.58820000  0.61008000  0.67526000  1
  C  C457  1  0.12690000  0.60527000  0.31156000  1
  C  C458  1  0.45950000  0.60409000  0.67428000  1
  C  C459  1  0.96910000  0.60297000  0.13101000  1
  C  C460  1  0.06550000  0.60217000  0.29683000  1
  C  C461  1  0.41780000  0.59537000  0.00089000  1
  C  C462  1  0.02140000  0.59339000  0.77704000  1
  C  C463  1  0.40600000  0.58846000  0.94631000  1
  C  C464  1  0.91720000  0.58810000  0.17403000  1
  C  C465  1  0.32570000  0.58802000  0.70530000  1
  C  C466  1  0.59210000  0.58783000  0.69931000  1
  C  C467  1  0.45860000  0.58580000  0.70073000  1
  C  C468  1  0.55430000  0.58016000  0.47206000  1
  C  C469  1  0.26290000  0.57847000  0.71835000  1
  C  C470  1  0.62080000  0.57802000  0.45931000  1
  C  C471  1  0.71830000  0.57548000  0.69356000  1
  C  C472  1  0.52630000  0.57546000  0.71151000  1
  C  C473  1  0.66240000  0.57480000  0.71008000  1
  C  C474  1  0.00950000  0.57310000  0.13272000  1
  C  C475  1  0.39100000  0.56801000  0.70888000  1
  C  C476  1  0.66850000  0.56709000  0.73879000  1
  C  C477  1  0.03730000  0.56551000  0.28727000  1
  C  C478  1  0.78870000  0.56379000  0.70484000  1
  C  C479  1  0.38790000  0.56344000  0.99035000  1
  C  C480  1  0.38470000  0.55853000  0.96146000  1
  C  C481  1  0.95790000  0.55778000  0.17717000  1
  C  C482  1  0.73600000  0.55305000  0.74816000  1
  C  C483  1  0.79590000  0.55275000  0.73214000  1
  C  C484  1  0.00360000  0.54727000  0.15513000  1
  C  C485  1  0.86710000  0.54263000  0.74353000  1
  C  C486  1  0.64630000  0.54237000  0.44874000  1
  C  C487  1  0.69320000  0.54024000  0.42672000  1
  C  C488  1  0.25860000  0.53981000  0.72687000  1
  C  C489  1  0.38440000  0.53302000  0.72181000  1
  C  C490  1  0.95480000  0.53230000  0.20180000  1
  C  C491  1  0.79760000  0.53007000  0.34739000  1
  C  C492  1  0.75170000  0.52970000  0.36864000  1
  C  C493  1  0.18550000  0.52650000  0.73371000  1
  C  C494  1  0.35240000  0.52532000  0.95118000  1
  C  C495  1  0.30610000  0.52514000  0.92894000  1
  C  C496  1  0.32050000  0.52085000  0.73131000  1
  C  C497  1  0.17700000  0.51685000  0.88882000  1
  C  C498  1  0.13050000  0.51651000  0.86683000  1
  C  C499  1  0.62190000  0.50959000  0.46043000  1
  C  C500  1  0.90020000  0.50746000  0.32017000  1
  C  C501  1  0.71550000  0.50703000  0.41531000  1
  C  C502  1  0.76240000  0.50660000  0.39034000  1
  C  C503  1  0.85460000  0.50638000  0.34471000  1
  C  C504  1  0.14540000  0.49362000  0.84471000  1
  C  C505  1  0.23760000  0.49340000  0.89034000  1
  C  C506  1  0.28450000  0.49297000  0.91531000  1
  C  C507  1  0.09980000  0.49254000  0.82017000  1
  C  C508  1  0.37810000  0.49041000  0.96043000  1
  C  C509  1  0.86950000  0.48349000  0.36683000  1
  C  C510  1  0.82300000  0.48315000  0.38882000  1
  C  C511  1  0.67950000  0.47915000  0.23131000  1
  C  C512  1  0.69390000  0.47486000  0.42894000  1
  C  C513  1  0.64760000  0.47468000  0.45118000  1
  C  C514  1  0.81450000  0.47350000  0.23371000  1
  C  C515  1  0.24830000  0.47030000  0.86864000  1
  C  C516  1  0.20240000  0.46993000  0.84739000  1
  C  C517  1  0.04520000  0.46770000  0.70180000  1
  C  C518  1  0.61560000  0.46698000  0.22181000  1
  C  C519  1  0.74140000  0.46019000  0.22687000  1
  C  C520  1  0.30680000  0.45976000  0.92672000  1
  C  C521  1  0.35370000  0.45763000  0.94874000  1
  C  C522  1  0.13290000  0.45737000  0.24353000  1
  C  C523  1  0.99640000  0.45273000  0.65513000  1
  C  C524  1  0.20410000  0.44725000  0.23214000  1
  C  C525  1  0.26400000  0.44695000  0.24816000  1
  C  C526  1  0.04210000  0.44222000  0.67717000  1
  C  C527  1  0.61530000  0.44147000  0.46146000  1
  C  C528  1  0.61210000  0.43656000  0.49035000  1
  C  C529  1  0.21130000  0.43621000  0.20484000  1
  C  C530  1  0.96270000  0.43449000  0.78727000  1
  C  C531  1  0.33150000  0.43291000  0.23879000  1
  C  C532  1  0.60900000  0.43199000  0.20888000  1
  C  C533  1  0.99050000  0.42690000  0.63272000  1
  C  C534  1  0.33760000  0.42520000  0.21008000  1
  C  C535  1  0.47370000  0.42454000  0.21151000  1
  C  C536  1  0.28170000  0.42452000  0.19356000  1
  C  C537  1  0.37920000  0.42198000  0.95931000  1
  C  C538  1  0.73710000  0.42153000  0.21835000  1
  C  C539  1  0.44570000  0.41984000  0.97206000  1
  C  C540  1  0.54140000  0.41420000  0.20073000  1
  C  C541  1  0.40790000  0.41217000  0.19931000  1
  C  C542  1  0.67430000  0.41198000  0.20530000  1
  C  C543  1  0.08280000  0.41190000  0.67403000  1
  C  C544  1  0.59400000  0.41154000  0.44631000  1
  C  C545  1  0.97860000  0.40661000  0.27704000  1
  C  C546  1  0.58220000  0.40463000  0.50089000  1
  C  C547  1  0.93450000  0.39783000  0.79683000  1
  C  C548  1  0.03090000  0.39703000  0.63101000  1
  C  C549  1  0.54050000  0.39591000  0.17428000  1
  C  C550  1  0.87310000  0.39473000  0.81156000  1
  C  C551  1  0.41180000  0.38992000  0.17526000  1
  C  C552  1  0.34350000  0.38856000  0.95529000  1
  C  C553  1  0.07830000  0.38830000  0.65327000  1
  C  C554  1  0.46980000  0.38671000  0.98465000  1
  C  C555  1  0.47920000  0.38123000  0.16267000  1
  C  C556  1  0.56490000  0.37985000  0.45732000  1
  C  C557  1  0.55850000  0.37629000  0.48468000  1
  C  C558  1  0.94630000  0.37307000  0.28913000  1
  C  C559  1  0.02810000  0.37230000  0.60552000  1
  C  C560  1  0.94150000  0.36819000  0.31771000  1
  C  C561  1  0.53010000  0.36649000  0.11932000  1
  C  C562  1  0.97780000  0.36593000  0.79588000  1
  C  C563  1  0.84420000  0.36145000  0.82001000  1
  C  C564  1  0.96140000  0.36045000  0.59699000  1
  C  C565  1  0.08870000  0.36018000  0.59432000  1
  C  C566  1  0.48390000  0.35652000  0.13926000  1
  C  C567  1  0.36710000  0.35482000  0.96569000  1
  C  C568  1  0.43490000  0.35298000  0.97761000  1
  C  C569  1  0.92080000  0.34386000  0.27315000  1
  C  C570  1  0.54300000  0.34380000  0.09706000  1
  C  C571  1  0.52710000  0.34217000  0.49679000  1
  C  C572  1  0.82750000  0.34166000  0.56728000  1
  C  C573  1  0.90990000  0.33787000  0.32911000  1
  C  C574  1  0.09000000  0.33435000  0.57326000  1
  C  C575  1  0.95990000  0.33281000  0.57591000  1
  C  C576  1  0.94900000  0.33243000  0.80316000  1
  C  C577  1  0.88530000  0.32929000  0.81669000  1
  C  C578  1  0.15780000  0.32429000  0.56058000  1
  C  C579  1  0.75840000  0.32357000  0.56530000  1
  C  C580  1  0.45120000  0.32235000  0.13781000  1
  C  C581  1  0.02450000  0.32113000  0.56437000  1
  C  C582  1  0.88930000  0.31887000  0.56604000  1
  C  C583  1  0.46560000  0.31812000  0.98681000  1
  C  C584  1  0.22340000  0.31789000  0.57709000  1
  C  C585  1  0.89260000  0.31272000  0.28508000  1
  C  C586  1  0.88700000  0.30931000  0.31232000  1
  C  C587  1  0.51120000  0.30849000  0.09552000  1
  C  C588  1  0.16640000  0.30787000  0.53417000  1
  C  C589  1  0.28670000  0.30684000  0.56647000  1
  C  C590  1  0.23150000  0.30010000  0.52422000  1
  C  C591  1  0.29220000  0.29999000  0.53973000  1
  C  C592  1  0.46330000  0.29917000  0.11548000  1
  C  C593  1  0.85850000  0.29340000  0.82720000  1
  C  C594  1  0.81490000  0.29298000  0.85012000  1
  C  C595  1  0.75380000  0.29006000  0.55103000  1
  C  C596  1  0.88180000  0.28959000  0.55073000  1
  C  C597  1  0.36510000  0.28910000  0.52922000  1
  C  C598  1  0.53200000  0.28328000  0.07218000  1
  C  C599  1  0.75650000  0.28040000  0.90675000  1
  C  C600  1  0.71580000  0.27919000  0.93149000  1
  C  C601  1  0.68320000  0.27506000  0.54296000  1
  C  C602  1  0.81550000  0.27474000  0.34905000  1
  C  C603  1  0.85990000  0.27303000  0.32579000  1
  C  C604  1  0.81590000  0.27303000  0.54423000  1
  C  C605  1  0.68560000  0.26741000  0.38690000  1
  C  C606  1  0.64230000  0.26630000  0.41038000  1
  C  C607  1  0.88000000  0.25952000  0.81491000  1
  C  C608  1  0.60750000  0.25742000  0.95580000  1
  C  C609  1  0.79000000  0.25700000  0.86009000  1
  C  C610  1  0.65430000  0.25687000  0.93183000  1
  C  C611  1  0.74170000  0.25674000  0.88477000  1
  C  C612  1  0.74170000  0.24326000  0.38477000  1
  C  C613  1  0.65430000  0.24313000  0.43183000  1
  C  C614  1  0.79000000  0.24300000  0.36009000  1
  C  C615  1  0.60750000  0.24258000  0.45580000  1
  C  C616  1  0.88000000  0.24048000  0.31491000  1
  C  C617  1  0.64230000  0.23370000  0.91038000  1
  C  C618  1  0.68560000  0.23259000  0.88690000  1
  C  C619  1  0.85990000  0.22697000  0.82579000  1
  C  C620  1  0.81590000  0.22697000  0.04423000  1
  C  C621  1  0.81550000  0.22526000  0.84905000  1
  C  C622  1  0.68320000  0.22494000  0.04296000  1
  C  C623  1  0.71580000  0.22081000  0.43149000  1
  C  C624  1  0.75650000  0.21960000  0.40675000  1
  C  C625  1  0.53200000  0.21672000  0.57218000  1
  C  C626  1  0.36510000  0.21090000  0.02922000  1
  C  C627  1  0.88180000  0.21041000  0.05073000  1
  C  C628  1  0.75380000  0.20994000  0.05103000  1
  C  C629  1  0.81490000  0.20702000  0.35012000  1
  C  C630  1  0.85850000  0.20660000  0.32720000  1
  C  C631  1  0.46330000  0.20083000  0.61548000  1
  C  C632  1  0.29220000  0.20001000  0.03973000  1
  C  C633  1  0.23150000  0.19990000  0.02422000  1
  C  C634  1  0.28670000  0.19316000  0.06647000  1
  C  C635  1  0.16640000  0.19213000  0.03417000  1
  C  C636  1  0.51120000  0.19151000  0.59552000  1
  C  C637  1  0.88700000  0.19069000  0.81232000  1
  C  C638  1  0.89260000  0.18728000  0.78508000  1
  C  C639  1  0.22340000  0.18211000  0.07709000  1
  C  C640  1  0.46560000  0.18188000  0.48681000  1
  C  C641  1  0.88930000  0.18113000  0.06604000  1
  C  C642  1  0.02450000  0.17887000  0.06437000  1
  C  C643  1  0.45120000  0.17765000  0.63781000  1
  C  C644  1  0.75840000  0.17643000  0.06530000  1
  C  C645  1  0.15780000  0.17571000  0.06058000  1
  C  C646  1  0.88530000  0.17071000  0.31669000  1
  C  C647  1  0.94900000  0.16757000  0.30316000  1
  C  C648  1  0.95990000  0.16719000  0.07591000  1
  C  C649  1  0.09000000  0.16565000  0.07326000  1
  C  C650  1  0.90990000  0.16213000  0.82911000  1
  C  C651  1  0.82750000  0.15834000  0.06728000  1
  C  C652  1  0.52710000  0.15783000  0.99679000  1
  C  C653  1  0.54300000  0.15620000  0.59706000  1
  C  C654  1  0.92080000  0.15614000  0.77315000  1
  C  C655  1  0.43490000  0.14702000  0.47761000  1
  C  C656  1  0.36710000  0.14518000  0.46569000  1
  C  C657  1  0.48390000  0.14348000  0.63926000  1
  C  C658  1  0.08870000  0.13982000  0.09432000  1
  C  C659  1  0.96140000  0.13955000  0.09699000  1
  C  C660  1  0.84420000  0.13855000  0.32001000  1
  C  C661  1  0.97780000  0.13407000  0.29588000  1
  C  C662  1  0.53010000  0.13351000  0.61932000  1
  C  C663  1  0.94150000  0.13181000  0.81771000  1
  C  C664  1  0.02810000  0.12770000  0.10552000  1
  C  C665  1  0.94630000  0.12693000  0.78913000  1
  C  C666  1  0.55850000  0.12371000  0.98468000  1
  C  C667  1  0.56490000  0.12015000  0.95732000  1
  C  C668  1  0.47920000  0.11877000  0.66267000  1
  C  C669  1  0.46980000  0.11329000  0.48465000  1
  C  C670  1  0.07830000  0.11170000  0.15327000  1
  C  C671  1  0.34350000  0.11144000  0.45529000  1
  C  C672  1  0.41180000  0.11008000  0.67526000  1
  C  C673  1  0.87310000  0.10527000  0.31156000  1
  C  C674  1  0.54050000  0.10409000  0.67428000  1
  C  C675  1  0.03090000  0.10297000  0.13101000  1
  C  C676  1  0.93450000  0.10217000  0.29683000  1
  C  C677  1  0.58220000  0.09537000  0.00089000  1
  C  C678  1  0.97860000  0.09339000  0.77704000  1
  C  C679  1  0.59400000  0.08846000  0.94631000  1
  C  C680  1  0.08280000  0.08810000  0.17403000  1
  C  C681  1  0.67430000  0.08802000  0.70530000  1
  C  C682  1  0.40790000  0.08783000  0.69931000  1
  C  C683  1  0.54140000  0.08580000  0.70073000  1
  C  C684  1  0.44570000  0.08016000  0.47206000  1
  C  C685  1  0.73710000  0.07847000  0.71835000  1
  C  C686  1  0.37920000  0.07802000  0.45931000  1
  C  C687  1  0.28170000  0.07548000  0.69356000  1
  C  C688  1  0.47370000  0.07546000  0.71151000  1
  C  C689  1  0.33760000  0.07480000  0.71008000  1
  C  C690  1  0.99050000  0.07310000  0.13272000  1
  C  C691  1  0.60900000  0.06801000  0.70888000  1
  C  C692  1  0.33150000  0.06709000  0.73879000  1
  C  C693  1  0.96270000  0.06551000  0.28727000  1
  C  C694  1  0.21130000  0.06379000  0.70484000  1
  C  C695  1  0.61210000  0.06344000  0.99035000  1
  C  C696  1  0.61530000  0.05853000  0.96146000  1
  C  C697  1  0.04210000  0.05778000  0.17717000  1
  C  C698  1  0.26400000  0.05305000  0.74816000  1
  C  C699  1  0.20410000  0.05275000  0.73214000  1
  C  C700  1  0.99640000  0.04727000  0.15513000  1
  C  C701  1  0.13290000  0.04263000  0.74353000  1
  C  C702  1  0.35370000  0.04237000  0.44874000  1
  C  C703  1  0.30680000  0.04024000  0.42672000  1
  C  C704  1  0.74140000  0.03981000  0.72687000  1
  C  C705  1  0.61560000  0.03302000  0.72181000  1
  C  C706  1  0.04520000  0.03230000  0.20180000  1
  C  C707  1  0.20240000  0.03007000  0.34739000  1
  C  C708  1  0.24830000  0.02970000  0.36864000  1
  C  C709  1  0.81450000  0.02650000  0.73371000  1
  C  C710  1  0.64760000  0.02532000  0.95118000  1
  C  C711  1  0.69390000  0.02514000  0.92894000  1
  C  C712  1  0.67950000  0.02085000  0.73131000  1
  C  C713  1  0.82300000  0.01685000  0.88882000  1
  C  C714  1  0.86950000  0.01651000  0.86683000  1
  C  C715  1  0.37810000  0.00959000  0.46043000  1
  C  C716  1  0.09980000  0.00746000  0.32017000  1
  C  C717  1  0.28450000  0.00703000  0.41531000  1
  C  C718  1  0.23760000  0.00660000  0.39034000  1
  C  C719  1  0.14540000  0.00638000  0.34471000  1
  O  O720  1  0.98371000  0.99893000  0.70129000  1
  O  O721  1  0.81616000  0.99862000  0.75021000  1
  O  O722  1  0.02686000  0.99166000  0.25947000  1
  O  O723  1  0.04167000  0.99025000  0.32079000  1
  O  O724  1  0.87741000  0.97522000  0.79990000  1
  O  O725  1  0.89254000  0.97253000  0.32360000  1
  O  O726  1  0.86995000  0.97023000  0.26647000  1
  O  O727  1  0.06681000  0.96221000  0.79360000  1
  O  O728  1  0.13302000  0.95857000  0.22347000  1
  O  O729  1  0.91888000  0.95424000  0.72147000  1
  O  O730  1  0.91770000  0.95369000  0.22737000  1
  O  O731  1  0.98170000  0.93174000  0.77251000  1
  O  O732  1  0.99056000  0.92841000  0.29313000  1
  O  O733  1  0.83440000  0.92459000  0.76247000  1
  O  O734  1  0.02440000  0.92338000  0.19480000  1
  O  O735  1  0.03584000  0.91252000  0.25264000  1
  O  O736  1  0.46279000  0.83680000  0.52214000  1
  O  O737  1  0.48277000  0.82719000  0.57881000  1
  O  O738  1  0.50803000  0.82208000  0.48211000  1
  O  O739  1  0.47812000  0.81924000  0.00029000  1
  O  O740  1  0.43121000  0.79711000  0.05370000  1
  O  O741  1  0.58429000  0.79673000  0.54462000  1
  O  O742  1  0.36923000  0.79139000  0.55200000  1
  O  O743  1  0.56531000  0.78857000  0.97963000  1
  O  O744  1  0.62644000  0.77672000  0.50548000  1
  O  O745  1  0.60009000  0.77608000  0.44863000  1
  O  O746  1  0.37072000  0.77465000  0.97622000  1
  O  O747  1  0.47067000  0.75841000  0.51455000  1
  O  O748  1  0.45257000  0.75777000  0.45455000  1
  O  O749  1  0.32059000  0.75177000  0.02796000  1
  O  O750  1  0.49306000  0.75125000  0.07357000  1
  O  O751  1  0.49306000  0.74875000  0.57357000  1
  O  O752  1  0.32059000  0.74823000  0.52796000  1
  O  O753  1  0.45257000  0.74223000  0.95455000  1
  O  O754  1  0.47067000  0.74159000  0.01455000  1
  O  O755  1  0.37072000  0.72535000  0.47622000  1
  O  O756  1  0.60009000  0.72392000  0.94863000  1
  O  O757  1  0.62644000  0.72328000  0.00548000  1
  O  O758  1  0.56531000  0.71143000  0.47963000  1
  O  O759  1  0.36923000  0.70861000  0.05200000  1
  O  O760  1  0.58429000  0.70327000  0.04462000  1
  O  O761  1  0.43121000  0.70289000  0.55370000  1
  O  O762  1  0.47812000  0.68076000  0.50029000  1
  O  O763  1  0.50803000  0.67792000  0.98211000  1
  O  O764  1  0.48277000  0.67281000  0.07881000  1
  O  O765  1  0.46279000  0.66320000  0.02214000  1
  O  O766  1  0.03584000  0.58748000  0.75264000  1
  O  O767  1  0.02440000  0.57662000  0.69480000  1
  O  O768  1  0.83440000  0.57541000  0.26247000  1
  O  O769  1  0.99056000  0.57159000  0.79313000  1
  O  O770  1  0.98170000  0.56826000  0.27251000  1
  O  O771  1  0.91770000  0.54631000  0.72737000  1
  O  O772  1  0.91888000  0.54576000  0.22147000  1
  O  O773  1  0.13302000  0.54143000  0.72347000  1
  O  O774  1  0.06681000  0.53779000  0.29360000  1
  O  O775  1  0.86995000  0.52977000  0.76647000  1
  O  O776  1  0.89254000  0.52747000  0.82360000  1
  O  O777  1  0.87741000  0.52478000  0.29990000  1
  O  O778  1  0.04167000  0.50975000  0.82079000  1
  O  O779  1  0.02686000  0.50834000  0.75947000  1
  O  O780  1  0.81616000  0.50138000  0.25021000  1
  O  O781  1  0.98371000  0.50107000  0.20129000  1
  O  O782  1  0.01629000  0.49893000  0.70129000  1
  O  O783  1  0.18384000  0.49862000  0.75021000  1
  O  O784  1  0.97314000  0.49166000  0.25947000  1
  O  O785  1  0.95833000  0.49025000  0.32079000  1
  O  O786  1  0.12259000  0.47522000  0.79990000  1
  O  O787  1  0.10746000  0.47253000  0.32360000  1
  O  O788  1  0.13005000  0.47023000  0.26647000  1
  O  O789  1  0.93319000  0.46221000  0.79360000  1
  O  O790  1  0.86698000  0.45857000  0.22347000  1
  O  O791  1  0.08112000  0.45424000  0.72147000  1
  O  O792  1  0.08230000  0.45369000  0.22737000  1
  O  O793  1  0.01830000  0.43174000  0.77251000  1
  O  O794  1  0.00944000  0.42841000  0.29313000  1
  O  O795  1  0.16560000  0.42459000  0.76247000  1
  O  O796  1  0.97560000  0.42338000  0.19480000  1
  O  O797  1  0.96416000  0.41252000  0.25264000  1
  O  O798  1  0.53721000  0.33680000  0.52214000  1
  O  O799  1  0.51723000  0.32719000  0.57881000  1
  O  O800  1  0.49197000  0.32208000  0.48211000  1
  O  O801  1  0.52188000  0.31924000  0.00029000  1
  O  O802  1  0.56879000  0.29711000  0.05370000  1
  O  O803  1  0.41571000  0.29673000  0.54462000  1
  O  O804  1  0.63077000  0.29139000  0.55200000  1
  O  O805  1  0.43469000  0.28857000  0.97963000  1
  O  O806  1  0.37356000  0.27672000  0.50548000  1
  O  O807  1  0.39991000  0.27608000  0.44863000  1
  O  O808  1  0.62928000  0.27465000  0.97622000  1
  O  O809  1  0.52933000  0.25841000  0.51455000  1
  O  O810  1  0.54743000  0.25777000  0.45455000  1
  O  O811  1  0.67941000  0.25177000  0.02796000  1
  O  O812  1  0.50694000  0.25125000  0.07357000  1
  O  O813  1  0.50694000  0.24875000  0.57357000  1
  O  O814  1  0.67941000  0.24823000  0.52796000  1
  O  O815  1  0.54743000  0.24223000  0.95455000  1
  O  O816  1  0.52933000  0.24159000  0.01455000  1
  O  O817  1  0.62928000  0.22535000  0.47622000  1
  O  O818  1  0.39991000  0.22392000  0.94863000  1
  O  O819  1  0.37356000  0.22328000  0.00548000  1
  O  O820  1  0.43469000  0.21143000  0.47963000  1
  O  O821  1  0.63077000  0.20861000  0.05200000  1
  O  O822  1  0.41571000  0.20327000  0.04462000  1
  O  O823  1  0.56879000  0.20289000  0.55370000  1
  O  O824  1  0.52188000  0.18076000  0.50029000  1
  O  O825  1  0.49197000  0.17792000  0.98211000  1
  O  O826  1  0.51723000  0.17281000  0.07881000  1
  O  O827  1  0.53721000  0.16320000  0.02214000  1
  O  O828  1  0.96416000  0.08748000  0.75264000  1
  O  O829  1  0.97560000  0.07662000  0.69480000  1
  O  O830  1  0.16560000  0.07541000  0.26247000  1
  O  O831  1  0.00944000  0.07159000  0.79313000  1
  O  O832  1  0.01830000  0.06826000  0.27251000  1
  O  O833  1  0.08230000  0.04631000  0.72737000  1
  O  O834  1  0.08112000  0.04576000  0.22147000  1
  O  O835  1  0.86698000  0.04143000  0.72347000  1
  O  O836  1  0.93319000  0.03779000  0.29360000  1
  O  O837  1  0.13005000  0.02977000  0.76647000  1
  O  O838  1  0.10746000  0.02747000  0.82360000  1
  O  O839  1  0.12259000  0.02478000  0.29990000  1
  O  O840  1  0.95833000  0.00975000  0.82079000  1
  O  O841  1  0.97314000  0.00834000  0.75947000  1
  O  O842  1  0.18384000  0.00138000  0.25021000  1
  O  O843  1  0.01629000  0.00107000  0.20129000  1
