# generated using pymatgen
data_Co5H24C30(N2O)12
_symmetry_space_group_name_H-M   'P 1'
_cell_length_a   9.27500000
_cell_length_b   12.92200000
_cell_length_c   14.56400000
_cell_angle_alpha   105.06000000
_cell_angle_beta   97.19400000
_cell_angle_gamma   96.25400000
_symmetry_Int_Tables_number   1
_chemical_formula_structural   Co5H24C30(N2O)12
_chemical_formula_sum   'Co5 H24 C30 N24 O12'
_cell_volume   1653.96411062
_cell_formula_units_Z   1
loop_
 _symmetry_equiv_pos_site_id
 _symmetry_equiv_pos_as_xyz
  1  'x, y, z'
loop_
 _atom_site_type_symbol
 _atom_site_label
 _atom_site_symmetry_multiplicity
 _atom_site_fract_x
 _atom_site_fract_y
 _atom_site_fract_z
 _atom_site_occupancy
  Co  Co0  1  0.00000000  0.00000000  0.00000000  1
  Co  Co1  1  0.04706000  0.29721000  0.12683000  1
  Co  Co2  1  0.44528000  0.91885000  0.71791000  1
  Co  Co3  1  0.55472000  0.08115000  0.28209000  1
  Co  Co4  1  0.95294000  0.70279000  0.87317000  1
  H  H5  1  0.04440000  0.94500000  0.21070000  1
  H  H6  1  0.07460000  0.42410000  0.88350000  1
  H  H7  1  0.08620000  0.43500000  0.98870000  1
  H  H8  1  0.19330000  0.74130000  0.73860000  1
  H  H9  1  0.24700000  0.56680000  0.41110000  1
  H  H10  1  0.27290000  0.12220000  0.94630000  1
  H  H11  1  0.29930000  0.64380000  0.16630000  1
  H  H12  1  0.30620000  0.98130000  0.10760000  1
  H  H13  1  0.33920000  0.36580000  0.28630000  1
  H  H14  1  0.36710000  0.10470000  0.86960000  1
  H  H15  1  0.43330000  0.86390000  0.41970000  1
  H  H16  1  0.45940000  0.31430000  0.32600000  1
  H  H17  1  0.54060000  0.68570000  0.67400000  1
  H  H18  1  0.56670000  0.13610000  0.58030000  1
  H  H19  1  0.63290000  0.89530000  0.13040000  1
  H  H20  1  0.66080000  0.63420000  0.71370000  1
  H  H21  1  0.69380000  0.01870000  0.89240000  1
  H  H22  1  0.70070000  0.35620000  0.83370000  1
  H  H23  1  0.72710000  0.87780000  0.05370000  1
  H  H24  1  0.75300000  0.43320000  0.58890000  1
  H  H25  1  0.80670000  0.25870000  0.26140000  1
  H  H26  1  0.91380000  0.56500000  0.01130000  1
  H  H27  1  0.92540000  0.57590000  0.11650000  1
  H  H28  1  0.95560000  0.05500000  0.78930000  1
  C  C29  1  0.02170000  0.88020000  0.16190000  1
  C  C30  1  0.03420000  0.28890000  0.91150000  1
  C  C31  1  0.18240000  0.47840000  0.22270000  1
  C  C32  1  0.19210000  0.80680000  0.78370000  1
  C  C33  1  0.23800000  0.97220000  0.86480000  1
  C  C34  1  0.25900000  0.59070000  0.28030000  1
  C  C35  1  0.27810000  0.61760000  0.38000000  1
  C  C36  1  0.29290000  0.05300000  0.13230000  1
  C  C37  1  0.30920000  0.66360000  0.23320000  1
  C  C38  1  0.32790000  0.21440000  0.21820000  1
  C  C39  1  0.34290000  0.71930000  0.43200000  1
  C  C40  1  0.36550000  0.75090000  0.53950000  1
  C  C41  1  0.37540000  0.76800000  0.28700000  1
  C  C42  1  0.39040000  0.79430000  0.38400000  1
  C  C43  1  0.43260000  0.84950000  0.23630000  1
  C  C44  1  0.56740000  0.15050000  0.76370000  1
  C  C45  1  0.60960000  0.20570000  0.61600000  1
  C  C46  1  0.62460000  0.23200000  0.71300000  1
  C  C47  1  0.63450000  0.24910000  0.46050000  1
  C  C48  1  0.65710000  0.28070000  0.56800000  1
  C  C49  1  0.67210000  0.78560000  0.78180000  1
  C  C50  1  0.69080000  0.33640000  0.76680000  1
  C  C51  1  0.70710000  0.94700000  0.86770000  1
  C  C52  1  0.72190000  0.38240000  0.62000000  1
  C  C53  1  0.74100000  0.40930000  0.71970000  1
  C  C54  1  0.76200000  0.02780000  0.13520000  1
  C  C55  1  0.80790000  0.19320000  0.21630000  1
  C  C56  1  0.81760000  0.52160000  0.77730000  1
  C  C57  1  0.96580000  0.71110000  0.08850000  1
  C  C58  1  0.97830000  0.11980000  0.83810000  1
  N  N59  1  0.00590000  0.21810000  0.82340000  1
  N  N60  1  0.01240000  0.87300000  0.07110000  1
  N  N61  1  0.02270000  0.23570000  0.97820000  1
  N  N62  1  0.06910000  0.39500000  0.93010000  1
  N  N63  1  0.10580000  0.81950000  0.84920000  1
  N  N64  1  0.13550000  0.92680000  0.90290000  1
  N  N65  1  0.18760000  0.09370000  0.09710000  1
  N  N66  1  0.20640000  0.20240000  0.15110000  1
  N  N67  1  0.27920000  0.89990000  0.78930000  1
  N  N68  1  0.30050000  0.08000000  0.89770000  1
  N  N69  1  0.38210000  0.30980000  0.28500000  1
  N  N70  1  0.38410000  0.12210000  0.20870000  1
  N  N71  1  0.61590000  0.87790000  0.79130000  1
  N  N72  1  0.61790000  0.69020000  0.71500000  1
  N  N73  1  0.69950000  0.92000000  0.10230000  1
  N  N74  1  0.72080000  0.10010000  0.21070000  1
  N  N75  1  0.79360000  0.79760000  0.84890000  1
  N  N76  1  0.81240000  0.90630000  0.90290000  1
  N  N77  1  0.86450000  0.07320000  0.09710000  1
  N  N78  1  0.89420000  0.18050000  0.15080000  1
  N  N79  1  0.93090000  0.60500000  0.06990000  1
  N  N80  1  0.97730000  0.76430000  0.02180000  1
  N  N81  1  0.98760000  0.12700000  0.92890000  1
  N  N82  1  0.99410000  0.78190000  0.17660000  1
  O  O83  1  0.12130000  0.41740000  0.26570000  1
  O  O84  1  0.18030000  0.44720000  0.13330000  1
  O  O85  1  0.34680000  0.68160000  0.58290000  1
  O  O86  1  0.40450000  0.85200000  0.58070000  1
  O  O87  1  0.41070000  0.82780000  0.14870000  1
  O  O88  1  0.49760000  0.06260000  0.70640000  1
  O  O89  1  0.50240000  0.93740000  0.29360000  1
  O  O90  1  0.58930000  0.17220000  0.85130000  1
  O  O91  1  0.59550000  0.14800000  0.41930000  1
  O  O92  1  0.65320000  0.31840000  0.41710000  1
  O  O93  1  0.81970000  0.55280000  0.86670000  1
  O  O94  1  0.87870000  0.58260000  0.73430000  1
