# generated using pymatgen
data_Na2Zn19H192(C81O20)4
_symmetry_space_group_name_H-M   'P 1'
_cell_length_a   32.47290000
_cell_length_b   32.47290000
_cell_length_c   33.09399291
_cell_angle_alpha   119.38107821
_cell_angle_beta   119.38110691
_cell_angle_gamma   90.00000000
_symmetry_Int_Tables_number   1
_chemical_formula_structural   Na2Zn19H192(C81O20)4
_chemical_formula_sum   'Na4 Zn38 H384 C648 O160'
_cell_volume   25130.66543453
_cell_formula_units_Z   2
loop_
 _symmetry_equiv_pos_site_id
 _symmetry_equiv_pos_as_xyz
  1  'x, y, z'
loop_
 _atom_site_type_symbol
 _atom_site_label
 _atom_site_symmetry_multiplicity
 _atom_site_fract_x
 _atom_site_fract_y
 _atom_site_fract_z
 _atom_site_occupancy
  Na  Na0  1  0.37500000  0.11556000  0.25000000  1
  Na  Na1  1  0.86556000  0.12500000  0.75000000  1
  Na  Na2  1  0.87500000  0.13444000  0.25000000  1
  Na  Na3  1  0.88444000  0.62500000  0.75000000  1
  Zn  Zn4  1  0.00159000  0.78569000  0.86924000  1
  Zn  Zn5  1  0.11547000  0.72220000  0.41025000  1
  Zn  Zn6  1  0.18468000  0.68468000  0.36936000  1
  Zn  Zn7  1  0.21431000  0.99841000  0.13076000  1
  Zn  Zn8  1  0.21586000  0.07331000  0.09070000  1
  Zn  Zn9  1  0.21867000  0.11710000  0.20472000  1
  Zn  Zn10  1  0.25000000  0.75000000  0.50000000  1
  Zn  Zn11  1  0.27780000  0.88453000  0.58974000  1
  Zn  Zn12  1  0.29479000  0.68806000  0.41026000  1
  Zn  Zn13  1  0.31195000  0.70522000  0.58975000  1
  Zn  Zn14  1  0.31532000  0.81532000  0.63064000  1
  Zn  Zn15  1  0.43468000  0.43468000  0.86936000  1
  Zn  Zn16  1  0.43806000  0.36547000  0.91026000  1
  Zn  Zn17  1  0.45521000  0.52780000  0.08974000  1
  Zn  Zn18  1  0.47219000  0.54478000  0.91025000  1
  Zn  Zn19  1  0.50000000  0.50000000  0.00000000  1
  Zn  Zn20  1  0.53133000  0.16238000  0.29528000  1
  Zn  Zn21  1  0.53414000  0.23261000  0.40930000  1
  Zn  Zn22  1  0.53569000  0.11765000  0.36924000  1
  Zn  Zn23  1  0.56532000  0.56532000  0.13064000  1
  Zn  Zn24  1  0.63453000  0.56194000  0.08975000  1
  Zn  Zn25  1  0.74841000  0.16645000  0.63076000  1
  Zn  Zn26  1  0.76395000  0.13290000  0.29528000  1
  Zn  Zn27  1  0.76739000  0.46586000  0.59070000  1
  Zn  Zn28  1  0.82331000  0.12484000  0.59070000  1
  Zn  Zn29  1  0.83355000  0.25159000  0.36924000  1
  Zn  Zn30  1  0.83762000  0.46867000  0.70472000  1
  Zn  Zn31  1  0.86710000  0.23605000  0.70472000  1
  Zn  Zn32  1  0.86765000  0.08355000  0.86924000  1
  Zn  Zn33  1  0.87484000  0.01739000  0.09070000  1
  Zn  Zn34  1  0.87516000  0.17669000  0.40930000  1
  Zn  Zn35  1  0.88235000  0.46431000  0.63076000  1
  Zn  Zn36  1  0.88290000  0.78133000  0.79528000  1
  Zn  Zn37  1  0.91238000  0.01395000  0.79528000  1
  Zn  Zn38  1  0.91645000  0.13235000  0.13076000  1
  Zn  Zn39  1  0.92669000  0.78414000  0.90930000  1
  Zn  Zn40  1  0.98261000  0.12516000  0.90930000  1
  Zn  Zn41  1  0.98605000  0.08762000  0.20472000  1
  H  H42  1  0.00030000  0.67280000  0.07280000  1
  H  H43  1  0.00270000  0.29250000  0.56860000  1
  H  H44  1  0.00530000  0.23780000  0.46020000  1
  H  H45  1  0.00580000  0.55010000  0.65500000  1
  H  H46  1  0.00610000  0.22360000  0.76760000  1
  H  H47  1  0.00630000  0.20040000  0.51280000  1
  H  H48  1  0.01000000  0.42310000  0.33180000  1
  H  H49  1  0.01200000  0.81260000  0.17580000  1
  H  H50  1  0.01780000  0.30620000  0.79520000  1
  H  H51  1  0.01880000  0.38540000  0.20240000  1
  H  H52  1  0.02230000  0.54030000  0.77880000  1
  H  H53  1  0.02340000  0.93960000  0.61600000  1
  H  H54  1  0.02360000  0.96110000  0.19680000  1
  H  H55  1  0.02610000  0.25270000  0.06860000  1
  H  H56  1  0.02690000  0.75740000  0.28280000  1
  H  H57  1  0.03100000  0.79660000  0.47460000  1
  H  H58  1  0.03160000  0.49400000  0.70640000  1
  H  H59  1  0.03320000  0.57720000  0.35560000  1
  H  H60  1  0.03440000  0.24890000  0.20780000  1
  H  H61  1  0.03630000  0.05080000  0.42340000  1
  H  H62  1  0.03770000  0.88700000  0.18380000  1
  H  H63  1  0.03830000  0.31680000  0.14880000  1
  H  H64  1  0.03890000  0.97640000  0.80320000  1
  H  H65  1  0.04110000  0.82660000  0.79220000  1
  H  H66  1  0.04250000  0.81590000  0.06860000  1
  H  H67  1  0.04260000  0.84520000  0.66500000  1
  H  H68  1  0.04680000  0.28770000  0.68380000  1
  H  H69  1  0.05010000  0.36210000  0.97220000  1
  H  H70  1  0.05620000  0.02740000  0.29520000  1
  H  H71  1  0.05710000  0.85760000  0.74760000  1
  H  H72  1  0.05950000  0.39240000  0.75240000  1
  H  H73  1  0.06040000  0.97660000  0.38400000  1
  H  H74  1  0.06240000  0.25630000  0.01280000  1
  H  H75  1  0.06460000  0.61240000  0.67800000  1
  H  H76  1  0.06680000  0.36050000  0.64880000  1
  H  H77  1  0.07250000  0.40000000  0.07280000  1
  H  H78  1  0.07520000  0.75600000  0.79360000  1
  H  H79  1  0.07960000  0.14020000  0.38120000  1
  H  H80  1  0.08340000  0.70600000  0.16900000  1
  H  H81  1  0.08560000  0.46300000  0.16900000  1
  H  H82  1  0.08580000  0.23520000  0.93260000  1
  H  H83  1  0.09130000  0.67820000  0.66820000  1
  H  H84  1  0.09750000  0.45910000  0.28260000  1
  H  H85  1  0.10080000  0.69990000  0.84500000  1
  H  H86  1  0.10980000  0.68690000  0.23380000  1
  H  H87  1  0.11000000  0.30950000  0.25240000  1
  H  H88  1  0.11050000  0.83200000  0.14880000  1
  H  H89  1  0.11210000  0.07000000  0.30160000  1
  H  H90  1  0.11210000  0.17210000  0.47220000  1
  H  H91  1  0.11260000  0.09700000  0.95780000  1
  H  H92  1  0.11300000  0.96230000  0.81620000  1
  H  H93  1  0.11320000  0.26200000  0.67580000  1
  H  H94  1  0.11610000  0.17060000  0.25880000  1
  H  H95  1  0.11690000  0.21770000  0.03120000  1
  H  H96  1  0.11900000  0.87140000  0.33140000  1
  H  H97  1  0.12260000  0.28630000  0.92340000  1
  H  H98  1  0.12400000  0.54690000  0.23380000  1
  H  H99  1  0.12760000  0.40480000  0.83500000  1
  H  H100  1  0.12860000  0.88100000  0.66860000  1
  H  H101  1  0.13000000  0.84780000  0.02800000  1
  H  H102  1  0.13020000  0.80060000  0.88480000  1
  H  H103  1  0.13350000  0.54060000  0.32420000  1
  H  H104  1  0.13540000  0.43360000  0.70240000  1
  H  H105  1  0.13660000  0.63760000  0.82200000  1
  H  H106  1  0.13920000  0.15480000  0.04220000  1
  H  H107  1  0.14240000  0.94290000  0.25240000  1
  H  H108  1  0.14270000  0.08820000  0.25880000  1
  H  H109  1  0.14610000  0.29680000  0.18380000  1
  H  H110  1  0.15000000  0.25030000  0.57280000  1
  H  H111  1  0.15220000  0.87000000  0.97200000  1
  H  H112  1  0.15480000  0.95740000  0.33500000  1
  H  H113  1  0.15710000  0.83790000  0.61380000  1
  H  H114  1  0.15740000  0.31040000  0.88400000  1
  H  H115  1  0.16210000  0.84290000  0.38620000  1
  H  H116  1  0.16380000  0.36320000  0.17580000  1
  H  H117  1  0.16440000  0.00340000  0.47520000  1
  H  H118  1  0.16460000  0.75730000  0.50880000  1
  H  H119  1  0.16800000  0.88950000  0.85120000  1
  H  H120  1  0.17310000  0.57180000  0.83180000  1
  H  H121  1  0.17320000  0.23570000  0.19680000  1
  H  H122  1  0.17340000  0.95890000  0.20780000  1
  H  H123  1  0.17650000  0.81490000  0.71740000  1
  H  H124  1  0.17920000  0.67930000  0.68400000  1
  H  H125  1  0.18020000  0.37760000  0.33500000  1
  H  H126  1  0.18300000  0.81640000  0.79760000  1
  H  H127  1  0.18360000  0.81700000  0.20240000  1
  H  H128  1  0.18410000  0.95750000  0.93140000  1
  H  H129  1  0.18510000  0.82350000  0.28260000  1
  H  H130  1  0.18650000  0.08570000  0.96880000  1
  H  H131  1  0.18740000  0.98800000  0.82420000  1
  H  H132  1  0.18950000  0.23160000  0.30160000  1
  H  H133  1  0.18980000  0.77010000  0.43540000  1
  H  H134  1  0.19070000  0.78360000  0.32420000  1
  H  H135  1  0.19370000  0.24300000  0.71240000  1
  H  H136  1  0.19940000  0.86980000  0.11520000  1
  H  H137  1  0.20340000  0.96900000  0.52540000  1
  H  H138  1  0.20910000  0.43510000  0.78260000  1
  H  H139  1  0.21000000  0.36900000  0.83140000  1
  H  H140  1  0.21240000  0.46000000  0.33140000  1
  H  H141  1  0.21300000  0.33340000  0.66900000  1
  H  H142  1  0.21640000  0.80930000  0.67580000  1
  H  H143  1  0.21940000  0.44370000  0.21240000  1
  H  H144  1  0.22160000  0.67760000  0.64440000  1
  H  H145  1  0.22180000  0.41440000  0.97520000  1
  H  H146  1  0.22410000  0.54330000  0.38620000  1
  H  H147  1  0.22990000  0.81020000  0.56460000  1
  H  H148  1  0.23130000  0.00700000  0.78760000  1
  H  H149  1  0.23900000  0.26780000  0.29520000  1
  H  H150  1  0.24260000  0.97310000  0.71720000  1
  H  H151  1  0.24270000  0.83540000  0.49120000  1
  H  H152  1  0.24350000  0.04960000  0.98720000  1
  H  H153  1  0.24400000  0.92480000  0.20640000  1
  H  H154  1  0.24520000  0.57070000  0.81600000  1
  H  H155  1  0.24560000  0.66530000  0.43540000  1
  H  H156  1  0.24850000  0.65580000  0.49120000  1
  H  H157  1  0.25590000  0.52540000  0.28280000  1
  H  H158  1  0.26500000  0.07590000  0.17180000  1
  H  H159  1  0.27540000  0.27690000  0.78280000  1
  H  H160  1  0.29030000  0.00650000  0.27880000  1
  H  H161  1  0.29060000  0.44070000  0.82420000  1
  H  H162  1  0.29330000  0.41210000  0.88620000  1
  H  H163  1  0.29400000  0.25610000  0.26760000  1
  H  H164  1  0.29400000  0.91660000  0.83100000  1
  H  H165  1  0.29510000  0.01220000  0.03980000  1
  H  H166  1  0.29690000  0.35980000  0.73380000  1
  H  H167  1  0.30010000  0.89920000  0.15500000  1
  H  H168  1  0.30160000  0.24100000  0.38120000  1
  H  H169  1  0.30260000  0.15320000  0.06740000  1
  H  H170  1  0.30640000  0.45340000  0.02540000  1
  H  H171  1  0.31080000  0.47180000  0.47520000  1
  H  H172  1  0.31310000  0.89020000  0.76620000  1
  H  H173  1  0.32070000  0.82080000  0.31600000  1
  H  H174  1  0.32180000  0.90870000  0.33180000  1
  H  H175  1  0.32200000  0.55640000  0.52540000  1
  H  H176  1  0.32240000  0.77840000  0.35560000  1
  H  H177  1  0.32360000  0.40740000  0.38400000  1
  H  H178  1  0.32720000  0.57240000  0.85560000  1
  H  H179  1  0.32720000  0.99970000  0.92720000  1
  H  H180  1  0.33470000  0.75440000  0.56460000  1
  H  H181  1  0.34420000  0.75150000  0.50880000  1
  H  H182  1  0.35270000  0.06530000  0.30180000  1
  H  H183  1  0.35400000  0.04770000  0.13120000  1
  H  H184  1  0.35460000  0.21710000  0.27260000  1
  H  H185  1  0.36010000  0.30010000  0.47220000  1
  H  H186  1  0.36240000  0.86340000  0.17800000  1
  H  H187  1  0.36290000  0.19920000  0.07660000  1
  H  H188  1  0.38710000  0.37260000  0.42340000  1
  H  H189  1  0.38760000  0.93540000  0.32200000  1
  H  H190  1  0.38990000  0.07790000  0.02780000  1
  H  H191  1  0.39540000  0.19450000  0.22740000  1
  H  H192  1  0.39600000  0.16650000  0.36880000  1
  H  H193  1  0.39730000  0.01350000  0.19820000  1
  H  H194  1  0.40580000  0.49270000  0.99120000  1
  H  H195  1  0.41530000  0.43980000  0.93540000  1
  H  H196  1  0.42280000  0.32250000  0.57280000  1
  H  H197  1  0.42280000  0.96680000  0.64440000  1
  H  H198  1  0.42640000  0.27340000  0.11600000  1
  H  H199  1  0.42760000  0.67280000  0.14440000  1
  H  H200  1  0.42800000  0.28100000  0.97460000  1
  H  H201  1  0.42820000  0.82690000  0.16820000  1
  H  H202  1  0.42930000  0.75480000  0.18400000  1
  H  H203  1  0.43690000  0.37400000  0.73380000  1
  H  H204  1  0.43920000  0.24660000  0.02480000  1
  H  H205  1  0.44360000  0.67800000  0.47460000  1
  H  H206  1  0.44740000  0.33580000  0.43260000  1
  H  H207  1  0.44840000  0.10980000  0.11880000  1
  H  H208  1  0.44990000  0.99420000  0.34500000  1
  H  H209  1  0.45310000  0.87600000  0.76620000  1
  H  H210  1  0.45490000  0.22240000  0.46020000  1
  H  H211  1  0.45600000  0.33560000  0.66900000  1
  H  H212  1  0.45600000  0.23850000  0.23240000  1
  H  H213  1  0.45670000  0.77590000  0.61380000  1
  H  H214  1  0.45940000  0.86650000  0.67580000  1
  H  H215  1  0.45970000  0.97770000  0.22120000  1
  H  H216  1  0.47460000  0.74410000  0.71720000  1
  H  H217  1  0.48500000  0.15410000  0.32820000  1
  H  H218  1  0.49410000  0.49260000  0.21720000  1
  H  H219  1  0.50150000  0.41460000  0.00880000  1
  H  H220  1  0.50440000  0.47990000  0.06460000  1
  H  H221  1  0.50480000  0.00470000  0.68400000  1
  H  H222  1  0.50600000  0.96840000  0.29360000  1
  H  H223  1  0.50650000  0.31240000  0.51280000  1
  H  H224  1  0.50730000  0.59420000  0.00880000  1
  H  H225  1  0.50740000  0.50590000  0.78280000  1
  H  H226  1  0.51100000  0.22260000  0.20480000  1
  H  H227  1  0.51870000  0.46940000  0.71240000  1
  H  H228  1  0.52010000  0.49560000  0.93540000  1
  H  H229  1  0.52590000  0.40710000  0.11380000  1
  H  H230  1  0.52820000  0.68920000  0.52480000  1
  H  H231  1  0.52840000  0.28320000  0.85560000  1
  H  H232  1  0.53060000  0.48130000  0.28760000  1
  H  H233  1  0.53360000  0.38350000  0.82420000  1
  H  H234  1  0.53700000  0.91440000  0.83100000  1
  H  H235  1  0.53760000  0.37860000  0.16860000  1
  H  H236  1  0.54000000  0.78760000  0.66860000  1
  H  H237  1  0.54090000  0.90250000  0.71740000  1
  H  H238  1  0.54660000  0.69360000  0.97460000  1
  H  H239  1  0.55060000  0.00460000  0.38480000  1
  H  H240  1  0.55630000  0.78060000  0.78760000  1
  H  H241  1  0.55930000  0.70940000  0.17580000  1
  H  H242  1  0.56020000  0.58470000  0.06460000  1
  H  H243  1  0.56050000  0.18000000  0.19840000  1
  H  H244  1  0.56260000  0.41380000  0.67580000  1
  H  H245  1  0.56350000  0.36690000  0.53120000  1
  H  H246  1  0.56490000  0.79090000  0.21740000  1
  H  H247  1  0.56590000  0.27610000  0.56860000  1
  H  H248  1  0.56640000  0.86460000  0.29760000  1
  H  H249  1  0.56700000  0.26880000  0.70240000  1
  H  H250  1  0.56980000  0.29260000  0.16500000  1
  H  H251  1  0.57080000  0.24530000  0.81600000  1
  H  H252  1  0.57350000  0.34750000  0.78260000  1
  H  H253  1  0.57660000  0.00110000  0.29220000  1
  H  H254  1  0.57680000  0.28890000  0.30320000  1
  H  H255  1  0.57690000  0.99000000  0.66820000  1
  H  H256  1  0.58200000  0.28830000  0.64880000  1
  H  H257  1  0.58540000  0.49850000  0.99120000  1
  H  H258  1  0.58560000  0.77820000  0.02480000  1
  H  H259  1  0.58620000  0.43740000  0.32420000  1
  H  H260  1  0.58790000  0.70670000  0.11380000  1
  H  H261  1  0.59260000  0.67640000  0.61600000  1
  H  H262  1  0.59290000  0.47410000  0.88620000  1
  H  H263  1  0.59520000  0.87240000  0.16500000  1
  H  H264  1  0.59780000  0.14800000  0.52800000  1
  H  H265  1  0.60000000  0.92750000  0.92720000  1
  H  H266  1  0.60390000  0.36300000  0.31620000  1
  H  H267  1  0.60730000  0.07940000  0.24120000  1
  H  H268  1  0.60760000  0.94050000  0.24760000  1
  H  H269  1  0.61080000  0.36260000  0.45780000  1
  H  H270  1  0.61340000  0.06560000  0.67800000  1
  H  H271  1  0.61460000  0.98120000  0.79760000  1
  H  H272  1  0.61650000  0.46640000  0.17580000  1
  H  H273  1  0.61980000  0.16580000  0.61520000  1
  H  H274  1  0.62000000  0.06980000  0.47200000  1
  H  H275  1  0.62140000  0.46240000  0.83140000  1
  H  H276  1  0.62240000  0.81980000  0.66500000  1
  H  H277  1  0.62600000  0.56310000  0.26620000  1
  H  H278  1  0.62740000  0.61290000  0.57660000  1
  H  H279  1  0.63100000  0.79000000  0.16860000  1
  H  H280  1  0.63310000  0.43650000  0.46880000  1
  H  H281  1  0.63390000  0.16180000  0.24120000  1
  H  H282  1  0.63680000  0.83620000  0.82420000  1
  H  H283  1  0.63700000  0.39610000  0.68380000  1
  H  H284  1  0.63740000  0.38920000  0.54220000  1
  H  H285  1  0.63790000  0.94990000  0.02780000  1
  H  H286  1  0.63790000  0.01840000  0.19840000  1
  H  H287  1  0.63950000  0.93320000  0.35120000  1
  H  H288  1  0.64000000  0.30710000  0.24760000  1
  H  H289  1  0.64020000  0.70310000  0.26620000  1
  H  H290  1  0.64920000  0.10490000  0.65500000  1
  H  H291  1  0.65250000  0.42650000  0.21740000  1
  H  H292  1  0.65870000  0.26000000  0.83180000  1
  H  H293  1  0.66420000  0.55260000  0.56740000  1
  H  H294  1  0.66440000  0.54400000  0.33100000  1
  H  H295  1  0.66666667  0.78700000  0.33100000  1
  H  H296  1  0.67040000  0.00900000  0.11880000  1
  H  H297  1  0.67480000  0.21240000  0.70640000  1
  H  H298  1  0.67750000  0.57720000  0.42720000  1
  H  H299  1  0.68320000  0.96170000  0.85120000  1
  H  H300  1  0.68540000  0.18440000  0.82200000  1
  H  H301  1  0.68760000  0.49350000  0.48720000  1
  H  H302  1  0.68960000  0.84260000  0.11600000  1
  H  H303  1  0.69050000  0.89000000  0.74760000  1
  H  H304  1  0.69290000  0.36000000  0.75240000  1
  H  H305  1  0.69380000  0.98220000  0.20480000  1
  H  H306  1  0.69990000  0.63990000  0.52780000  1
  H  H307  1  0.70320000  0.85390000  0.81620000  1
  H  H308  1  0.70740000  0.43020000  0.83500000  1
  H  H309  1  0.70750000  0.99730000  0.43140000  1
  H  H310  1  0.70890000  0.28440000  0.70780000  1
  H  H311  1  0.71110000  0.42320000  0.69680000  1
  H  H312  1  0.71170000  0.41800000  0.35120000  1
  H  H313  1  0.71230000  0.95320000  0.31620000  1
  H  H314  1  0.71370000  0.87740000  0.07660000  1
  H  H315  1  0.71560000  0.29110000  0.29220000  1
  H  H316  1  0.71680000  0.47160000  0.14440000  1
  H  H317  1  0.71840000  0.03760000  0.79360000  1
  H  H318  1  0.71900000  0.57200000  0.02540000  1
  H  H319  1  0.72310000  0.72460000  0.21720000  1
  H  H320  1  0.72390000  0.43410000  0.43140000  1
  H  H321  1  0.72640000  0.01430000  0.30320000  1
  H  H322  1  0.72660000  0.57360000  0.88400000  1
  H  H323  1  0.72770000  0.01150000  0.72120000  1
  H  H324  1  0.73120000  0.43300000  0.29760000  1
  H  H325  1  0.73220000  0.76100000  0.70480000  1
  H  H326  1  0.73800000  0.88680000  0.32420000  1
  H  H327  1  0.74000000  0.34130000  0.16820000  1
  H  H328  1  0.74370000  0.93760000  0.98720000  1
  H  H329  1  0.74390000  0.70600000  0.73240000  1
  H  H330  1  0.74420000  0.14510000  0.84500000  1
  H  H331  1  0.74470000  0.02760000  0.03980000  1
  H  H332  1  0.74730000  0.97390000  0.93140000  1
  H  H333  1  0.74970000  0.85000000  0.42720000  1
  H  H334  1  0.75110000  0.96560000  0.79220000  1
  H  H335  1  0.75340000  0.56080000  0.97520000  1
  H  H336  1  0.75460000  0.08420000  0.88480000  1
  H  H337  1  0.75470000  0.42920000  0.18400000  1
  H  H338  1  0.75650000  0.23850000  0.77880000  1
  H  H339  1  0.75700000  0.80630000  0.28760000  1
  H  H340  1  0.75900000  0.69840000  0.61880000  1
  H  H341  1  0.76150000  0.54400000  0.76760000  1
  H  H342  1  0.76150000  0.24350000  0.22120000  1
  H  H343  1  0.76220000  0.99470000  0.53980000  1
  H  H344  1  0.76350000  0.05090000  0.69820000  1
  H  H345  1  0.76430000  0.82680000  0.80320000  1
  H  H346  1  0.76480000  0.91420000  0.06740000  1
  H  H347  1  0.76840000  0.81050000  0.69840000  1
  H  H348  1  0.77640000  0.99390000  0.23240000  1
  H  H349  1  0.77720000  0.08350000  0.13120000  1
  H  H350  1  0.77740000  0.48900000  0.79520000  1
  H  H351  1  0.77760000  0.54510000  0.53980000  1
  H  H352  1  0.78230000  0.88310000  0.96880000  1
  H  H353  1  0.78290000  0.64540000  0.72740000  1
  H  H354  1  0.78760000  0.32520000  0.29360000  1
  H  H355  1  0.79770000  0.02720000  0.63120000  1
  H  H356  1  0.79960000  0.99370000  0.48720000  1
  H  H357  1  0.80080000  0.63710000  0.92340000  1
  H  H358  1  0.80090000  0.18470000  0.19820000  1
  H  H359  1  0.80550000  0.60460000  0.77260000  1
  H  H360  1  0.81530000  0.19910000  0.80180000  1
  H  H361  1  0.81560000  0.31460000  0.17800000  1
  H  H362  1  0.81980000  0.10200000  0.97200000  1
  H  H363  1  0.82000000  0.43950000  0.80160000  1
  H  H364  1  0.82590000  0.15680000  0.67180000  1
  H  H365  1  0.82790000  0.88790000  0.52780000  1
  H  H366  1  0.82940000  0.88390000  0.74120000  1
  H  H367  1  0.83200000  0.03290000  0.22740000  1
  H  H368  1  0.83350000  0.60400000  0.63120000  1
  H  H369  1  0.83420000  0.38020000  0.38480000  1
  H  H370  1  0.83570000  0.03230000  0.46880000  1
  H  H371  1  0.83820000  0.36610000  0.75880000  1
  H  H372  1  0.84320000  0.17410000  0.32820000  1
  H  H373  1  0.84520000  0.86080000  0.95780000  1
  H  H374  1  0.84590000  0.51500000  0.67180000  1
  H  H375  1  0.84680000  0.69740000  0.93260000  1
  H  H376  1  0.84700000  0.09520000  0.45780000  1
  H  H377  1  0.85200000  0.40220000  0.47200000  1
  H  H378  1  0.85490000  0.25580000  0.15500000  1
  H  H379  1  0.85980000  0.92040000  0.61880000  1
  H  H380  1  0.89020000  0.55160000  0.88120000  1
  H  H381  1  0.89510000  0.35080000  0.34500000  1
  H  H382  1  0.89800000  0.18020000  0.02800000  1
  H  H383  1  0.90300000  0.88740000  0.04220000  1
  H  H384  1  0.90320000  0.01480000  0.56740000  1
  H  H385  1  0.90410000  0.09320000  0.82820000  1
  H  H386  1  0.90480000  0.15300000  0.54220000  1
  H  H387  1  0.90680000  0.09590000  0.17180000  1
  H  H388  1  0.91180000  0.85730000  0.74120000  1
  H  H389  1  0.91430000  0.81350000  0.03120000  1
  H  H390  1  0.91580000  0.24540000  0.11520000  1
  H  H391  1  0.91650000  0.22280000  0.86880000  1
  H  H392  1  0.91800000  0.05550000  0.27260000  1
  H  H393  1  0.92060000  0.39270000  0.75880000  1
  H  H394  1  0.92210000  0.61010000  0.97220000  1
  H  H395  1  0.92410000  0.73500000  0.82820000  1
  H  H396  1  0.93000000  0.88790000  0.69840000  1
  H  H397  1  0.93020000  0.38000000  0.52800000  1
  H  H398  1  0.93440000  0.38660000  0.32200000  1
  H  H399  1  0.93470000  0.64730000  0.69820000  1
  H  H400  1  0.94450000  0.08200000  0.72740000  1
  H  H401  1  0.94910000  0.23650000  0.30180000  1
  H  H402  1  0.94920000  0.96370000  0.57660000  1
  H  H403  1  0.95040000  0.75650000  0.01280000  1
  H  H404  1  0.95230000  0.64600000  0.86880000  1
  H  H405  1  0.96240000  0.28160000  0.20640000  1
  H  H406  1  0.96710000  0.16800000  0.77260000  1
  H  H407  1  0.96770000  0.16430000  0.53120000  1
  H  H408  1  0.97240000  0.25530000  0.96020000  1
  H  H409  1  0.97260000  0.94380000  0.70480000  1
  H  H410  1  0.97280000  0.20230000  0.36880000  1
  H  H411  1  0.97360000  0.01150000  0.26760000  1
  H  H412  1  0.98160000  0.36210000  0.80160000  1
  H  H413  1  0.98520000  0.09680000  0.43260000  1
  H  H414  1  0.98570000  0.27360000  0.69680000  1
  H  H415  1  0.98650000  0.60270000  0.80180000  1
  H  H416  1  0.98780000  0.70490000  0.96020000  1
  H  H417  1  0.98850000  0.27230000  0.27880000  1
  H  H418  1  0.98850000  0.02640000  0.73240000  1
  H  H419  1  0.99100000  0.32960000  0.88120000  1
  H  H420  1  0.99300000  0.76870000  0.21240000  1
  H  H421  1  0.99350000  0.70970000  0.72120000  1
  H  H422  1  0.99530000  0.49520000  0.31600000  1
  H  H423  1  0.99540000  0.44940000  0.61520000  1
  H  H424  1  0.99660000  0.83560000  0.52480000  1
  H  H425  1  0.99890000  0.42340000  0.70780000  1
  C  C426  1  0.00084000  0.32384000  0.57628000  1
  C  C427  1  0.00128000  0.19681000  0.39002000  1
  C  C428  1  0.00200000  0.93110000  0.16240000  1
  C  C429  1  0.00244000  0.25084000  0.07628000  1
  C  C430  1  0.00323000  0.78633000  0.14066000  1
  C  C431  1  0.00328000  0.58203000  0.66822000  1
  C  C432  1  0.00363000  0.89083000  0.68606000  1
  C  C433  1  0.00444000  0.39922000  0.29724000  1
  C  C434  1  0.00933000  0.37613000  0.21986000  1
  C  C435  1  0.00968000  0.88638000  0.15496000  1
  C  C436  1  0.01046000  0.28886000  0.12552000  1
  C  C437  1  0.01115000  0.74215000  0.13370000  1
  C  C438  1  0.01416000  0.02931000  0.34692000  1
  C  C439  1  0.01417000  0.69597000  0.83514000  1
  C  C440  1  0.01453000  0.05343000  0.39386000  1
  C  C441  1  0.01566000  0.22646000  0.60612000  1
  C  C442  1  0.01662000  0.60969000  0.80590000  1
  C  C443  1  0.01718000  0.75288000  0.21676000  1
  C  C444  1  0.01751000  0.92670000  0.63300000  1
  C  C445  1  0.01829000  0.83869000  0.77378000  1
  C  C446  1  0.01858000  0.25968000  0.65496000  1
  C  C447  1  0.01898000  0.41418000  0.27156000  1
  C  C448  1  0.01904000  0.04384000  0.87048000  1
  C  C449  1  0.01990000  0.21667000  0.44414000  1
  C  C450  1  0.02014000  0.31021000  0.97748000  1
  C  C451  1  0.02160000  0.19629000  0.85274000  1
  C  C452  1  0.02175000  0.22623000  0.80146000  1
  C  C453  1  0.02300000  0.16894000  0.36574000  1
  C  C454  1  0.02355000  0.33385000  0.95170000  1
  C  C455  1  0.02412000  0.50352000  0.31824000  1
  C  C456  1  0.02480000  0.16810000  0.20600000  1
  C  C457  1  0.02715000  0.85635000  0.74470000  1
  C  C458  1  0.02875000  0.37775000  0.78610000  1
  C  C459  1  0.02907000  0.86947000  0.66154000  1
  C  C460  1  0.02963000  0.83643000  0.54366000  1
  C  C461  1  0.03216000  0.73586000  0.18132000  1
  C  C462  1  0.03245000  0.39365000  0.75530000  1
  C  C463  1  0.03346000  0.81576000  0.98392000  1
  C  C464  1  0.03435000  0.88635000  0.63310000  1
  C  C465  1  0.03487000  0.66719000  0.70188000  1
  C  C466  1  0.03649000  0.74459000  0.25798000  1
  C  C467  1  0.03805000  0.57234000  0.79208000  1
  C  C468  1  0.03845000  0.41166000  0.64172000  1
  C  C469  1  0.03853000  0.61938000  0.68204000  1
  C  C470  1  0.03886000  0.36506000  0.62552000  1
  C  C471  1  0.03962000  0.21572000  0.54304000  1
  C  C472  1  0.04012000  0.65750000  0.82574000  1
  C  C473  1  0.04233000  0.46753000  0.29686000  1
  C  C474  1  0.04624000  0.55314000  0.34068000  1
  C  C475  1  0.05031000  0.81236000  0.51332000  1
  C  C476  1  0.05190000  0.32120000  0.81460000  1
  C  C477  1  0.05279000  0.23192000  0.59624000  1
  C  C478  1  0.05281000  0.00741000  0.34202000  1
  C  C479  1  0.05903000  0.86279000  0.60178000  1
  C  C480  1  0.06021000  0.20734000  0.47748000  1
  C  C481  1  0.06259000  0.32677000  0.03534000  1
  C  C482  1  0.06462000  0.15982000  0.39784000  1
  C  C483  1  0.06491000  0.24451000  0.22622000  1
  C  C484  1  0.06501000  0.49602000  0.72142000  1
  C  C485  1  0.06593000  0.03753000  0.87926000  1
  C  C486  1  0.06757000  0.35917000  0.81394000  1
  C  C487  1  0.06761000  0.26416000  0.84692000  1
  C  C488  1  0.06842000  0.20502000  0.23004000  1
  C  C489  1  0.06890000  0.99800000  0.83760000  1
  C  C490  1  0.06956000  0.23266000  0.89892000  1
  C  C491  1  0.07029000  0.71409000  0.19038000  1
  C  C492  1  0.07120000  0.01270000  0.31460000  1
  C  C493  1  0.07220000  0.71900000  0.26540000  1
  C  C494  1  0.07330000  0.98249000  0.36700000  1
  C  C495  1  0.07384000  0.82544000  0.07628000  1
  C  C496  1  0.07639000  0.45581000  0.69358000  1
  C  C497  1  0.07677000  0.22275000  0.53534000  1
  C  C498  1  0.07732000  0.28962000  0.04304000  1
  C  C499  1  0.07745000  0.71037000  0.72688000  1
  C  C500  1  0.07749000  0.82819000  0.03718000  1
  C  C501  1  0.08299000  0.58281000  0.79812000  1
  C  C502  1  0.08362000  0.37620000  0.07944000  1
  C  C503  1  0.08385000  0.17815000  0.45170000  1
  C  C504  1  0.08398000  0.48238000  0.29796000  1
  C  C505  1  0.08461000  0.30281000  0.84202000  1
  C  C506  1  0.08506000  0.66797000  0.83178000  1
  C  C507  1  0.08615000  0.56820000  0.34316000  1
  C  C508  1  0.08732000  0.70472000  0.23064000  1
  C  C509  1  0.09043000  0.26453000  0.89386000  1
  C  C510  1  0.09176000  0.70916000  0.31032000  1
  C  C511  1  0.09359000  0.75398000  0.77858000  1
  C  C512  1  0.09789000  0.80960000  0.53800000  1
  C  C513  1  0.10057000  0.53963000  0.77312000  1
  C  C514  1  0.10198000  0.70720000  0.70276000  1
  C  C515  1  0.10433000  0.25323000  0.64066000  1
  C  C516  1  0.10478000  0.53093000  0.32152000  1
  C  C517  1  0.10649000  0.63062000  0.81796000  1
  C  C518  1  0.10779000  0.62089000  0.36658000  1
  C  C519  1  0.10835000  0.86498000  0.62996000  1
  C  C520  1  0.10917000  0.99637000  0.31394000  1
  C  C521  1  0.11165000  0.28245000  0.25530000  1
  C  C522  1  0.11193000  0.06943000  0.92886000  1
  C  C523  1  0.11362000  0.99032000  0.84504000  1
  C  C524  1  0.11365000  0.96565000  0.36690000  1
  C  C525  1  0.11405000  0.19865000  0.25770000  1
  C  C526  1  0.11432000  0.30279000  0.09624000  1
  C  C527  1  0.11506000  0.83666000  0.12552000  1
  C  C528  1  0.11753000  0.38053000  0.83846000  1
  C  C529  1  0.11774000  0.78124000  0.50668000  1
  C  C530  1  0.12009000  0.47629000  0.19038000  1
  C  C531  1  0.12255000  0.39155000  0.13370000  1
  C  C532  1  0.12378000  0.83618000  0.59556000  1
  C  C533  1  0.12526000  0.84496000  0.05212000  1
  C  C534  1  0.12541000  0.04811000  0.28422000  1
  C  C535  1  0.12613000  0.46053000  0.71986000  1
  C  C536  1  0.12620000  0.24582000  0.57944000  1
  C  C537  1  0.12775000  0.00735000  0.28610000  1
  C  C538  1  0.12796000  0.22176000  0.06512000  1
  C  C539  1  0.12966000  0.26566000  0.10612000  1
  C  C540  1  0.13053000  0.97093000  0.33846000  1
  C  C541  1  0.13281000  0.79419000  0.80642000  1
  C  C542  1  0.13451000  0.32330000  0.86700000  1
  C  C543  1  0.13502000  0.89165000  0.37004000  1
  C  C544  1  0.13721000  0.94097000  0.39822000  1
  C  C545  1  0.13743000  0.35433000  0.14066000  1
  C  C546  1  0.14057000  0.18307000  0.07114000  1
  C  C547  1  0.14132000  0.83262000  0.89464000  1
  C  C548  1  0.14155000  0.26115000  0.63370000  1
  C  C549  1  0.14262000  0.74742000  0.72844000  1
  C  C550  1  0.14332000  0.52592000  0.23064000  1
  C  C551  1  0.14365000  0.05905000  0.25770000  1
  C  C552  1  0.14365000  0.97285000  0.25530000  1
  C  C553  1  0.14528000  0.26858000  0.15496000  1
  C  C554  1  0.14673000  0.83834000  0.85828000  1
  C  C555  1  0.14916000  0.44546000  0.18132000  1
  C  C556  1  0.14922000  0.54280000  0.79724000  1
  C  C557  1  0.15125000  0.36365000  0.86690000  1
  C  C558  1  0.15504000  0.87474000  0.94788000  1
  C  C559  1  0.15627000  0.78947000  0.78014000  1
  C  C560  1  0.15664000  0.06284000  0.93488000  1
  C  C561  1  0.15827000  0.18667000  0.12074000  1
  C  C562  1  0.15835000  0.27875000  0.28610000  1
  C  C563  1  0.15881000  0.23611000  0.28422000  1
  C  C564  1  0.15954000  0.02354000  0.89388000  1
  C  C565  1  0.16040000  0.23130000  0.16240000  1
  C  C566  1  0.16131000  0.98171000  0.22622000  1
  C  C567  1  0.16162000  0.02502000  0.23004000  1
  C  C568  1  0.16166000  0.85327000  0.14172000  1
  C  C569  1  0.16334000  0.88494000  0.87448000  1
  C  C570  1  0.16357000  0.97037000  0.45634000  1
  C  C571  1  0.16382000  0.87622000  0.40444000  1
  C  C572  1  0.16418000  0.50258000  0.77156000  1
  C  C573  1  0.16738000  0.85868000  0.10536000  1
  C  C574  1  0.17067000  0.74547000  0.70314000  1
  C  C575  1  0.17181000  0.92251000  0.96282000  1
  C  C576  1  0.17336000  0.14856000  0.12952000  1
  C  C577  1  0.17456000  0.92616000  0.92372000  1
  C  C578  1  0.18120000  0.03790000  0.20600000  1
  C  C579  1  0.18424000  0.96654000  0.01608000  1
  C  C580  1  0.18442000  0.78602000  0.70204000  1
  C  C581  1  0.18528000  0.70588000  0.68176000  1
  C  C582  1  0.18764000  0.94969000  0.48668000  1
  C  C583  1  0.19040000  0.90211000  0.46200000  1
  C  C584  1  0.19320000  0.54640000  0.26540000  1
  C  C585  1  0.19546000  0.28216000  0.68132000  1
  C  C586  1  0.19958000  0.46388000  0.21676000  1
  C  C587  1  0.20477000  0.31757000  0.31394000  1
  C  C588  1  0.20581000  0.86719000  0.19358000  1
  C  C589  1  0.20655000  0.01808000  0.90376000  1
  C  C590  1  0.20725000  0.38721000  0.89822000  1
  C  C591  1  0.20793000  0.36753000  0.33846000  1
  C  C592  1  0.20941000  0.78326000  0.67848000  1
  C  C593  1  0.21053000  0.84373000  0.21986000  1
  C  C594  1  0.21246000  0.70556000  0.65932000  1
  C  C595  1  0.21367000  0.99677000  0.85934000  1
  C  C596  1  0.21388000  0.26718000  0.71676000  1
  C  C597  1  0.21398000  0.81558000  0.29796000  1
  C  C598  1  0.21674000  0.79059000  0.32152000  1
  C  C599  1  0.21753000  0.50453000  0.79686000  1
  C  C600  1  0.21856000  0.60116000  0.31032000  1
  C  C601  1  0.21876000  0.88226000  0.49332000  1
  C  C602  1  0.22149000  0.51339000  0.25798000  1
  C  C603  1  0.22504000  0.74299000  0.65684000  1
  C  C604  1  0.22629000  0.32029000  0.69038000  1
  C  C605  1  0.22839000  0.38502000  0.87004000  1
  C  C606  1  0.23238000  0.46398000  0.79796000  1
  C  C607  1  0.23502000  0.47839000  0.37004000  1
  C  C608  1  0.23597000  0.41357000  0.95634000  1
  C  C609  1  0.24062000  0.52822000  0.40444000  1
  C  C610  1  0.24340000  0.30190000  0.31460000  1
  C  C611  1  0.24602000  0.90641000  0.22142000  1
  C  C612  1  0.24658000  0.03428000  0.95696000  1
  C  C613  1  0.24712000  0.98282000  0.78324000  1
  C  C614  1  0.25258000  0.85738000  0.27156000  1
  C  C615  1  0.25325000  0.40125000  0.36690000  1
  C  C616  1  0.25352000  0.54412000  0.81824000  1
  C  C617  1  0.25431000  0.74121000  0.63342000  1
  C  C618  1  0.25453000  0.82933000  0.29686000  1
  C  C619  1  0.25541000  0.96351000  0.74202000  1
  C  C620  1  0.25701000  0.77496000  0.34316000  1
  C  C621  1  0.25785000  0.98885000  0.86630000  1
  C  C622  1  0.25879000  0.74569000  0.36658000  1
  C  C623  1  0.26101000  0.45725000  0.39822000  1
  C  C624  1  0.26339000  0.28649000  0.75798000  1
  C  C625  1  0.26414000  0.96784000  0.81868000  1
  C  C626  1  0.27160000  0.55989000  0.46200000  1
  C  C627  1  0.27456000  0.61106000  0.49332000  1
  C  C628  1  0.27592000  0.33732000  0.73064000  1
  C  C629  1  0.27822000  0.41382000  0.90444000  1
  C  C630  1  0.28093000  0.46674000  0.82152000  1
  C  C631  1  0.28100000  0.92780000  0.73460000  1
  C  C632  1  0.28591000  0.92971000  0.80962000  1
  C  C633  1  0.28699000  0.43764000  0.98668000  1
  C  C634  1  0.28921000  0.33461000  0.34202000  1
  C  C635  1  0.28963000  0.92255000  0.27312000  1
  C  C636  1  0.29084000  0.90824000  0.68968000  1
  C  C637  1  0.29143000  0.02725000  0.96466000  1
  C  C638  1  0.29277000  0.48597000  0.45634000  1
  C  C639  1  0.29280000  0.89802000  0.29724000  1
  C  C640  1  0.29370000  0.38451000  0.36700000  1
  C  C641  1  0.29412000  0.81472000  0.31824000  1
  C  C642  1  0.29444000  0.78754000  0.34068000  1
  C  C643  1  0.29528000  0.91268000  0.76936000  1
  C  C644  1  0.29640000  0.32220000  0.76540000  1
  C  C645  1  0.29676000  0.00418000  0.92056000  1
  C  C646  1  0.29904000  0.53699000  0.48668000  1
  C  C647  1  0.30314000  0.54444000  0.84068000  1
  C  C648  1  0.30339000  0.15949000  0.30318000  1
  C  C649  1  0.30344000  0.13721000  0.14102000  1
  C  C650  1  0.30403000  0.98583000  0.16486000  1
  C  C651  1  0.30989000  0.44040000  0.96200000  1
  C  C652  1  0.31820000  0.50701000  0.84316000  1
  C  C653  1  0.32234000  0.00403000  0.29208000  1
  C  C654  1  0.32523000  0.27175000  0.30146000  1
  C  C655  1  0.32576000  0.03333000  0.05586000  1
  C  C656  1  0.33203000  0.91494000  0.16822000  1
  C  C657  1  0.33273000  0.04266000  0.02252000  1
  C  C658  1  0.33276000  0.31761000  0.34692000  1
  C  C659  1  0.33281000  0.96513000  0.29812000  1
  C  C660  1  0.33322000  0.23802000  0.39784000  1
  C  C661  1  0.33374000  0.17064000  0.10108000  1
  C  C662  1  0.34250000  0.95988000  0.17426000  1
  C  C663  1  0.34274000  0.19680000  0.36574000  1
  C  C664  1  0.34355000  0.16886000  0.14726000  1
  C  C665  1  0.35116000  0.34176000  0.81032000  1
  C  C666  1  0.35969000  0.03928000  0.30590000  1
  C  C667  1  0.36098000  0.24761000  0.30340000  1
  C  C668  1  0.36106000  0.46876000  0.99332000  1
  C  C669  1  0.36126000  0.05319000  0.10998000  1
  C  C670  1  0.36785000  0.27355000  0.45170000  1
  C  C671  1  0.36938000  0.89351000  0.18204000  1
  C  C672  1  0.37067000  0.19657000  0.10614000  1
  C  C673  1  0.37089000  0.50879000  0.86658000  1
  C  C674  1  0.37911000  0.89221000  0.63342000  1
  C  C675  1  0.37933000  0.34043000  0.39386000  1
  C  C676  1  0.38062000  0.96147000  0.31796000  1
  C  C677  1  0.38215000  0.07185000  0.04830000  1
  C  C678  1  0.38874000  0.19321000  0.39002000  1
  C  C679  1  0.38894000  0.72544000  0.50668000  1
  C  C680  1  0.38902000  0.19421000  0.19660000  1
  C  C681  1  0.39031000  0.98338000  0.19410000  1
  C  C682  1  0.39884000  0.78144000  0.68968000  1
  C  C683  1  0.40645000  0.27160000  0.35274000  1
  C  C684  1  0.40726000  0.08106000  0.13426000  1
  C  C685  1  0.40750000  0.03562000  0.32574000  1
  C  C686  1  0.41626000  0.31956000  0.39892000  1
  C  C687  1  0.41678000  0.09018000  0.10216000  1
  C  C688  1  0.41719000  0.91701000  0.20188000  1
  C  C689  1  0.41724000  0.22069000  0.15308000  1
  C  C690  1  0.41727000  0.27014000  0.47748000  1
  C  C691  1  0.41797000  0.99672000  0.33178000  1
  C  C692  1  0.42424000  0.22747000  0.44414000  1
  C  C693  1  0.42477000  0.22029000  0.19854000  1
  C  C694  1  0.42766000  0.96195000  0.20792000  1
  C  C695  1  0.43180000  0.91385000  0.65684000  1
  C  C696  1  0.44011000  0.72840000  0.53800000  1
  C  C697  1  0.44597000  0.07097000  0.33514000  1
  C  C698  1  0.44656000  0.24619000  0.35898000  1
  C  C699  1  0.44661000  0.10631000  0.19682000  1
  C  C700  1  0.44686000  0.95376000  0.65932000  1
  C  C701  1  0.45096000  0.30031000  0.01332000  1
  C  C702  1  0.45324000  0.33362000  0.57944000  1
  C  C703  1  0.45360000  0.80680000  0.73460000  1
  C  C704  1  0.45472000  0.39332000  0.73064000  1
  C  C705  1  0.45556000  0.69686000  0.15932000  1
  C  C706  1  0.45588000  0.74648000  0.18176000  1
  C  C707  1  0.45630000  0.26751000  0.13300000  1
  C  C708  1  0.45720000  0.85078000  0.20276000  1
  C  C709  1  0.45723000  0.27963000  0.04366000  1
  C  C710  1  0.45857000  0.31259000  0.53534000  1
  C  C711  1  0.45916000  0.46856000  0.81032000  1
  C  C712  1  0.46037000  0.89943000  0.22688000  1
  C  C713  1  0.46079000  0.24259000  0.15798000  1
  C  C714  1  0.46301000  0.70096000  0.51332000  1
  C  C715  1  0.46409000  0.37009000  0.69038000  1
  C  C716  1  0.46900000  0.44320000  0.76540000  1
  C  C717  1  0.46907000  0.89522000  0.67848000  1
  C  C718  1  0.47178000  0.75938000  0.59556000  1
  C  C719  1  0.47408000  0.85668000  0.76936000  1
  C  C720  1  0.47544000  0.36774000  0.00668000  1
  C  C721  1  0.47840000  0.34789000  0.03800000  1
  C  C722  1  0.48586000  0.39916000  0.68132000  1
  C  C723  1  0.48661000  0.77851000  0.74202000  1
  C  C724  1  0.48899000  0.30903000  0.10178000  1
  C  C725  1  0.49121000  0.62911000  0.13342000  1
  C  C726  1  0.49215000  0.37255000  0.63370000  1
  C  C727  1  0.49299000  0.68180000  0.15684000  1
  C  C728  1  0.49459000  0.47149000  0.75798000  1
  C  C729  1  0.49547000  0.78247000  0.20314000  1
  C  C730  1  0.49569000  0.35779000  0.86658000  1
  C  C731  1  0.49648000  0.97588000  0.68176000  1
  C  C732  1  0.49675000  0.28435000  0.13310000  1
  C  C733  1  0.49742000  0.83582000  0.22844000  1
  C  C734  1  0.50288000  0.44958000  0.71676000  1
  C  C735  1  0.50342000  0.32732000  0.54304000  1
  C  C736  1  0.50398000  0.93499000  0.27858000  1
  C  C737  1  0.50660000  0.23730000  0.18540000  1
  C  C738  1  0.50938000  0.37378000  0.09556000  1
  C  C739  1  0.51403000  0.70723000  0.54366000  1
  C  C740  1  0.51498000  0.35835000  0.12996000  1
  C  C741  1  0.51762000  0.91602000  0.70204000  1
  C  C742  1  0.52161000  0.76498000  0.62996000  1
  C  C743  1  0.52371000  0.87991000  0.80962000  1
  C  C744  1  0.52496000  0.33615000  0.84316000  1
  C  C745  1  0.52851000  0.50541000  0.24202000  1
  C  C746  1  0.53124000  0.63894000  0.00668000  1
  C  C747  1  0.53144000  0.54084000  0.18968000  1
  C  C748  1  0.53247000  0.95767000  0.70314000  1
  C  C749  1  0.53326000  0.71907000  0.17848000  1
  C  C750  1  0.53602000  0.76762000  0.20204000  1
  C  C751  1  0.53612000  0.80042000  0.78324000  1
  C  C752  1  0.53633000  0.38743000  0.64066000  1
  C  C753  1  0.53754000  0.29624000  0.84068000  1
  C  C754  1  0.53947000  0.87387000  0.28014000  1
  C  C755  1  0.54059000  0.35478000  0.82152000  1
  C  C756  1  0.54207000  0.27907000  0.16154000  1
  C  C757  1  0.54275000  0.73899000  0.60178000  1
  C  C758  1  0.54345000  0.36432000  0.59624000  1
  C  C759  1  0.54419000  0.92361000  0.30642000  1
  C  C760  1  0.54523000  0.25363000  0.18606000  1
  C  C761  1  0.55042000  0.49712000  0.28324000  1
  C  C762  1  0.55454000  0.85084000  0.81868000  1
  C  C763  1  0.55680000  0.53100000  0.23460000  1
  C  C764  1  0.55960000  0.69011000  0.03800000  1
  C  C765  1  0.56236000  0.71301000  0.01332000  1
  C  C766  1  0.56472000  0.27412000  0.81824000  1
  C  C767  1  0.56558000  0.33398000  0.79796000  1
  C  C768  1  0.56576000  0.20046000  0.48392000  1
  C  C769  1  0.56880000  0.08190000  0.29400000  1
  C  C770  1  0.57544000  0.25244000  0.57628000  1
  C  C771  1  0.57664000  0.26904000  0.37048000  1
  C  C772  1  0.57819000  0.20969000  0.53718000  1
  C  C773  1  0.57933000  0.29233000  0.79686000  1
  C  C774  1  0.58262000  0.00332000  0.39464000  1
  C  C775  1  0.58582000  0.98102000  0.72844000  1
  C  C776  1  0.58618000  0.72178000  0.09556000  1
  C  C777  1  0.58643000  0.76403000  0.04366000  1
  C  C778  1  0.58666000  0.26046000  0.62552000  1
  C  C779  1  0.58834000  0.96155000  0.35828000  1
  C  C780  1  0.58838000  0.04498000  0.26996000  1
  C  C781  1  0.58869000  0.00549000  0.27378000  1
  C  C782  1  0.58960000  0.31890000  0.33760000  1
  C  C783  1  0.59046000  0.37966000  0.60612000  1
  C  C784  1  0.59119000  0.20189000  0.21578000  1
  C  C785  1  0.59165000  0.24265000  0.21390000  1
  C  C786  1  0.59173000  0.31593000  0.37926000  1
  C  C787  1  0.59336000  0.37796000  0.56512000  1
  C  C788  1  0.59373000  0.25933000  0.71986000  1
  C  C789  1  0.59496000  0.17686000  0.55212000  1
  C  C790  1  0.59875000  0.74675000  0.63310000  1
  C  C791  1  0.60078000  0.99556000  0.70276000  1
  C  C792  1  0.60084000  0.51414000  0.31868000  1
  C  C793  1  0.60327000  0.23006000  0.64172000  1
  C  C794  1  0.60472000  0.36362000  0.34504000  1
  C  C795  1  0.60635000  0.05135000  0.24230000  1
  C  C796  1  0.60635000  0.96755000  0.24470000  1
  C  C797  1  0.60668000  0.54528000  0.26936000  1
  C  C798  1  0.60738000  0.26898000  0.77156000  1
  C  C799  1  0.60845000  0.87745000  0.86630000  1
  C  C800  1  0.60868000  0.18798000  0.60536000  1
  C  C801  1  0.60943000  0.36193000  0.42886000  1
  C  C802  1  0.61257000  0.46367000  0.35934000  1
  C  C803  1  0.61279000  0.79275000  0.10178000  1
  C  C804  1  0.61498000  0.77161000  0.12996000  1
  C  C805  1  0.61549000  0.70630000  0.63300000  1
  C  C806  1  0.61719000  0.23777000  0.69358000  1
  C  C807  1  0.61947000  0.88247000  0.16154000  1
  C  C808  1  0.62034000  0.40954000  0.39388000  1
  C  C809  1  0.62204000  0.40664000  0.43488000  1
  C  C810  1  0.62225000  0.97125000  0.21390000  1
  C  C811  1  0.62380000  0.91638000  0.92056000  1
  C  C812  1  0.62387000  0.99067000  0.78014000  1
  C  C813  1  0.62459000  0.01389000  0.21578000  1
  C  C814  1  0.62474000  0.04284000  0.44788000  1
  C  C815  1  0.62622000  0.49062000  0.90444000  1
  C  C816  1  0.62745000  0.50785000  0.36630000  1
  C  C817  1  0.62991000  0.53591000  0.30962000  1
  C  C818  1  0.63226000  0.52456000  0.99332000  1
  C  C819  1  0.63247000  0.79207000  0.66154000  1
  C  C820  1  0.63494000  0.96114000  0.37448000  1
  C  C821  1  0.63568000  0.45655000  0.40376000  1
  C  C822  1  0.63595000  0.19095000  0.24230000  1
  C  C823  1  0.63635000  0.84875000  0.13310000  1
  C  C824  1  0.63638000  0.39528000  0.65496000  1
  C  C825  1  0.63807000  0.39057000  0.57114000  1
  C  C826  1  0.63835000  0.27715000  0.24470000  1
  C  C827  1  0.64083000  0.93243000  0.18606000  1
  C  C828  1  0.64165000  0.48502000  0.87004000  1
  C  C829  1  0.64221000  0.50431000  0.13342000  1
  C  C830  1  0.64351000  0.06266000  0.68204000  1
  C  C831  1  0.64522000  0.45941000  0.17848000  1
  C  C832  1  0.64567000  0.86257000  0.85934000  1
  C  C833  1  0.64802000  0.25444000  0.79724000  1
  C  C834  1  0.64943000  0.01651000  0.72688000  1
  C  C835  1  0.65211000  0.52160000  0.96200000  1
  C  C836  1  0.65641000  0.22540000  0.72142000  1
  C  C837  1  0.65824000  0.64884000  0.18968000  1
  C  C838  1  0.65957000  0.62067000  0.60614000  1
  C  C839  1  0.66268000  0.72408000  0.26936000  1
  C  C840  1  0.66385000  0.47504000  0.15684000  1
  C  C841  1  0.66494000  0.08619000  0.66822000  1
  C  C842  1  0.66539000  0.71079000  0.65798000  1
  C  C843  1  0.66602000  0.43442000  0.20204000  1
  C  C844  1  0.66615000  0.97645000  0.04830000  1
  C  C845  1  0.66638000  0.54676000  0.42056000  1
  C  C846  1  0.66701000  0.03469000  0.70188000  1
  C  C847  1  0.67251000  0.04101000  0.46282000  1
  C  C848  1  0.67255000  0.23349000  0.77312000  1
  C  C849  1  0.67268000  0.49658000  0.45696000  1
  C  C850  1  0.67323000  0.93741000  0.96466000  1
  C  C851  1  0.67361000  0.01223000  0.80642000  1
  C  C852  1  0.67616000  0.99916000  0.42372000  1
  C  C853  1  0.67670000  0.86549000  0.13300000  1
  C  C854  1  0.67780000  0.70360000  0.23460000  1
  C  C855  1  0.67880000  0.94810000  0.18540000  1
  C  C856  1  0.67971000  0.77371000  0.30962000  1
  C  C857  1  0.68044000  0.58374000  0.60108000  1
  C  C858  1  0.68110000  0.41040000  0.66240000  1
  C  C859  1  0.68158000  0.22498000  0.26996000  1
  C  C860  1  0.68239000  0.66724000  0.65308000  1
  C  C861  1  0.68243000  0.79523000  0.68606000  1
  C  C862  1  0.68407000  0.40827000  0.62074000  1
  C  C863  1  0.68499000  0.02460000  0.77858000  1
  C  C864  1  0.68509000  0.26829000  0.27378000  1
  C  C865  1  0.68538000  0.01198000  0.10216000  1
  C  C866  1  0.68741000  0.54143000  0.46466000  1
  C  C867  1  0.68979000  0.97986000  0.02252000  1
  C  C868  1  0.69097000  0.51101000  0.89822000  1
  C  C869  1  0.69719000  0.91539000  0.15798000  1
  C  C870  1  0.69721000  0.88568000  0.90376000  1
  C  C871  1  0.69810000  0.75660000  0.68540000  1
  C  C872  1  0.69969000  0.54904000  0.98668000  1
  C  C873  1  0.70376000  0.46246000  0.15932000  1
  C  C874  1  0.70767000  0.42067000  0.20314000  1
  C  C875  1  0.70988000  0.08176000  0.67426000  1
  C  C876  1  0.71038000  0.92268000  0.95696000  1
  C  C877  1  0.71114000  0.98954000  0.87448000  1
  C  C878  1  0.71147000  0.18734000  0.81796000  1
  C  C879  1  0.71155000  0.01994000  0.85828000  1
  C  C880  1  0.71195000  0.03026000  0.70792000  1
  C  C881  1  0.71351000  0.73661000  0.24202000  1
  C  C882  1  0.71513000  0.21531000  0.79812000  1
  C  C883  1  0.71565000  0.50325000  0.86690000  1
  C  C884  1  0.71654000  0.08184000  0.51608000  1
  C  C885  1  0.71755000  0.88835000  0.74470000  1
  C  C886  1  0.71784000  0.80454000  0.31868000  1
  C  C887  1  0.72037000  0.54277000  0.95634000  1
  C  C888  1  0.72093000  0.45793000  0.83846000  1
  C  C889  1  0.72125000  0.84165000  0.71390000  1
  C  C890  1  0.72285000  0.36165000  0.75530000  1
  C  C891  1  0.72520000  0.21210000  0.29400000  1
  C  C892  1  0.72588000  0.43528000  0.18176000  1
  C  C893  1  0.72645000  0.63215000  0.54830000  1
  C  C894  1  0.72700000  0.05320000  0.13426000  1
  C  C895  1  0.72825000  0.67477000  0.69854000  1
  C  C896  1  0.72840000  0.59355000  0.64726000  1
  C  C897  1  0.72986000  0.58273000  0.52252000  1
  C  C898  1  0.73010000  0.02253000  0.05586000  1
  C  C899  1  0.73096000  0.42336000  0.62952000  1
  C  C900  1  0.73102000  0.39262000  0.22844000  1
  C  C901  1  0.73142000  0.85472000  0.84504000  1
  C  C902  1  0.73171000  0.31491000  0.72622000  1
  C  C903  1  0.73249000  0.54370000  0.86700000  1
  C  C904  1  0.73282000  0.78612000  0.28324000  1
  C  C905  1  0.73338000  0.05379000  0.69410000  1
  C  C906  1  0.73434000  0.87034000  0.89388000  1
  C  C907  1  0.73547000  0.90957000  0.10614000  1
  C  C908  1  0.73583000  0.11083000  0.66486000  1
  C  C909  1  0.73584000  0.93239000  0.15308000  1
  C  C910  1  0.73885000  0.85845000  0.36630000  1
  C  C911  1  0.73954000  0.41334000  0.37448000  1
  C  C912  1  0.74032000  0.98142000  0.34504000  1
  C  C913  1  0.74067000  0.40627000  0.28014000  1
  C  C914  1  0.74556000  0.35198000  0.20276000  1
  C  C915  1  0.74637000  0.45477000  0.81394000  1
  C  C916  1  0.74672000  0.16381000  0.83178000  1
  C  C917  1  0.74677000  0.89567000  0.35934000  1
  C  C918  1  0.74756000  0.42456000  0.42372000  1
  C  C919  1  0.74800000  0.01870000  0.33760000  1
  C  C920  1  0.74872000  0.05679000  0.10998000  1
  C  C921  1  0.74916000  0.99756000  0.92372000  1
  C  C922  1  0.75021000  0.09051000  0.19682000  1
  C  C923  1  0.75239000  0.63902000  0.69660000  1
  C  C924  1  0.75332000  0.06202000  0.89464000  1
  C  C925  1  0.75381000  0.55344000  0.64102000  1
  C  C926  1  0.75403000  0.21974000  0.79208000  1
  C  C927  1  0.75418000  0.87380000  0.42056000  1
  C  C928  1  0.75549000  0.93509000  0.77378000  1
  C  C929  1  0.75735000  0.40835000  0.78610000  1
  C  C930  1  0.75741000  0.53921000  0.84202000  1
  C  C931  1  0.76198000  0.66678000  0.60216000  1
  C  C932  1  0.76223000  0.38281000  0.30642000  1
  C  C933  1  0.76270000  0.49340000  0.81460000  1
  C  C934  1  0.76389000  0.84119000  0.71578000  1
  C  C935  1  0.76651000  0.32745000  0.22688000  1
  C  C936  1  0.76734000  0.93044000  0.10108000  1
  C  C937  1  0.76808000  0.94721000  0.40376000  1
  C  C938  1  0.76870000  0.83960000  0.83760000  1
  C  C939  1  0.76994000  0.39673000  0.35828000  1
  C  C940  1  0.77253000  0.57576000  0.55586000  1
  C  C941  1  0.77354000  0.98434000  0.39388000  1
  C  C942  1  0.77377000  0.97825000  0.19854000  1
  C  C943  1  0.77460000  0.34359000  0.27858000  1
  C  C944  1  0.77502000  0.31842000  0.73004000  1
  C  C945  1  0.77725000  0.92323000  0.46466000  1
  C  C946  1  0.77824000  0.87204000  0.93488000  1
  C  C947  1  0.77931000  0.58276000  0.84692000  1
  C  C948  1  0.77971000  0.57523000  0.80146000  1
  C  C949  1  0.78026000  0.24597000  0.20792000  1
  C  C950  1  0.78333000  0.98010000  0.55586000  1
  C  C951  1  0.78428000  0.96038000  0.45696000  1
  C  C952  1  0.78469000  0.28487000  0.20188000  1
  C  C953  1  0.78562000  0.16824000  0.82574000  1
  C  C954  1  0.78753000  0.06333000  0.37926000  1
  C  C955  1  0.78790000  0.27480000  0.70600000  1
  C  C956  1  0.78928000  0.19621000  0.80590000  1
  C  C957  1  0.79031000  0.42181000  0.46282000  1
  C  C958  1  0.79101000  0.04031000  0.96282000  1
  C  C959  1  0.79266000  0.93979000  0.52252000  1
  C  C960  1  0.79284000  0.07314000  0.94788000  1
  C  C961  1  0.79384000  0.10144000  0.37048000  1
  C  C962  1  0.79498000  0.93158000  0.76996000  1
  C  C963  1  0.79811000  0.40881000  0.78422000  1
  C  C964  1  0.79954000  0.43424000  0.51608000  1
  C  C965  1  0.80135000  0.88595000  0.74230000  1
  C  C966  1  0.80319000  0.99872000  0.60998000  1
  C  C967  1  0.80320000  0.65726000  0.63426000  1
  C  C968  1  0.80343000  0.62933000  0.89386000  1
  C  C969  1  0.80371000  0.97840000  0.14726000  1
  C  C970  1  0.80379000  0.21072000  0.19410000  1
  C  C971  1  0.80579000  0.61098000  0.80340000  1
  C  C972  1  0.80679000  0.61126000  0.60998000  1
  C  C973  1  0.80758000  0.00239000  0.19660000  1
  C  C974  1  0.80905000  0.36405000  0.75770000  1
  C  C975  1  0.81202000  0.39132000  0.39464000  1
  C  C976  1  0.81266000  0.28853000  0.18204000  1
  C  C977  1  0.81284000  0.02824000  0.43488000  1
  C  C978  1  0.81333000  0.84173000  0.87926000  1
  C  C979  1  0.81693000  0.85943000  0.92886000  1
  C  C980  1  0.81943000  0.06693000  0.42886000  1
  C  C981  1  0.82097000  0.13917000  0.83514000  1
  C  C982  1  0.82185000  0.91615000  0.54830000  1
  C  C983  1  0.82314000  0.40504000  0.44788000  1
  C  C984  1  0.82936000  0.66626000  0.89892000  1
  C  C985  1  0.83106000  0.97700000  0.63426000  1
  C  C986  1  0.83114000  0.65645000  0.85274000  1
  C  C987  1  0.83176000  0.21438000  0.17426000  1
  C  C988  1  0.83184000  0.04954000  0.01608000  1
  C  C989  1  0.83190000  0.97520000  0.79400000  1
  C  C990  1  0.83619000  0.25328000  0.16822000  1
  C  C991  1  0.83758000  0.00381000  0.14102000  1
  C  C992  1  0.84018000  0.93538000  0.60216000  1
  C  C993  1  0.84051000  0.69661000  0.69682000  1
  C  C994  1  0.85144000  0.82664000  0.87048000  1
  C  C995  1  0.85631000  0.00021000  0.69682000  1
  C  C996  1  0.86083000  0.17903000  0.16486000  1
  C  C997  1  0.86279000  0.69656000  0.85898000  1
  C  C998  1  0.88721000  0.08758000  0.64102000  1
  C  C999  1  0.88917000  0.26417000  0.33514000  1
  C  C1000  1  0.89369000  0.55339000  0.80318000  1
  C  C1001  1  0.89856000  0.20616000  0.62952000  1
  C  C1002  1  0.90949000  0.24979000  0.80318000  1
  C  C1003  1  0.90982000  0.58322000  0.89784000  1
  C  C1004  1  0.91242000  0.11279000  0.35898000  1
  C  C1005  1  0.91381000  0.33506000  0.33178000  1
  C  C1006  1  0.91810000  0.43120000  0.70600000  1
  C  C1007  1  0.91816000  0.28346000  0.48392000  1
  C  C1008  1  0.91824000  0.29012000  0.32574000  1
  C  C1009  1  0.91886000  0.05371000  0.64726000  1
  C  C1010  1  0.91894000  0.59274000  0.86574000  1
  C  C1011  1  0.92064000  0.01734000  0.60108000  1
  C  C1012  1  0.92686000  0.20716000  0.05212000  1
  C  C1013  1  0.92815000  0.61785000  0.95170000  1
  C  C1014  1  0.92903000  0.55403000  0.66486000  1
  C  C1015  1  0.93057000  0.88807000  0.07114000  1
  C  C1016  1  0.93307000  0.18057000  0.57114000  1
  C  C1017  1  0.93667000  0.21247000  0.62074000  1
  C  C1018  1  0.93716000  0.84336000  0.06512000  1
  C  C1019  1  0.93734000  0.35649000  0.31796000  1
  C  C1020  1  0.93798000  0.24668000  0.10536000  1
  C  C1021  1  0.94095000  0.85635000  0.74230000  1
  C  C1022  1  0.94242000  0.05579000  0.30340000  1
  C  C1023  1  0.94321000  0.25128000  0.89002000  1
  C  C1024  1  0.94421000  0.05758000  0.69660000  1
  C  C1025  1  0.94621000  0.26662000  0.30590000  1
  C  C1026  1  0.94629000  0.08114000  0.35274000  1
  C  C1027  1  0.94657000  0.98547000  0.60614000  1
  C  C1028  1  0.94680000  0.27300000  0.86574000  1
  C  C1029  1  0.94681000  0.63874000  0.89002000  1
  C  C1030  1  0.94865000  0.39365000  0.75770000  1
  C  C1031  1  0.95046000  0.16816000  0.98392000  1
  C  C1032  1  0.95189000  0.87459000  0.71578000  1
  C  C1033  1  0.95502000  0.41162000  0.73004000  1
  C  C1034  1  0.95616000  0.98096000  0.12952000  1
  C  C1035  1  0.95716000  0.37526000  0.55212000  1
  C  C1036  1  0.95734000  0.66727000  0.97748000  1
  C  C1037  1  0.95899000  0.32749000  0.53718000  1
  C  C1038  1  0.95969000  0.20899000  0.03718000  1
  C  C1039  1  0.96072000  0.64031000  0.69410000  1
  C  C1040  1  0.96210000  0.81880000  0.79400000  1
  C  C1041  1  0.96247000  0.93407000  0.12074000  1
  C  C1042  1  0.96438000  0.59250000  0.67426000  1
  C  C1043  1  0.96531000  0.33299000  0.29812000  1
  C  C1044  1  0.96572000  0.75342000  0.04304000  1
  C  C1045  1  0.96667000  0.67424000  0.94414000  1
  C  C1046  1  0.96974000  0.28805000  0.29208000  1
  C  C1047  1  0.97029000  0.02377000  0.69854000  1
  C  C1048  1  0.97069000  0.98584000  0.65308000  1
  C  C1049  1  0.97176000  0.18716000  0.56512000  1
  C  C1050  1  0.97275000  0.70857000  0.03534000  1
  C  C1051  1  0.97498000  0.83838000  0.76996000  1
  C  C1052  1  0.97540000  0.31501000  0.22142000  1
  C  C1053  1  0.97623000  0.02971000  0.30146000  1
  C  C1054  1  0.97646000  0.84046000  0.10612000  1
  C  C1055  1  0.97747000  0.26990000  0.94414000  1
  C  C1056  1  0.98006000  0.28845000  0.14172000  1
  C  C1057  1  0.98130000  0.25200000  0.66240000  1
  C  C1058  1  0.98192000  0.79345000  0.09624000  1
  C  C1059  1  0.98266000  0.07936000  0.39892000  1
  C  C1060  1  0.98349000  0.35057000  0.27312000  1
  C  C1061  1  0.98611000  0.37541000  0.78422000  1
  C  C1062  1  0.98730000  0.92880000  0.68540000  1
  C  C1063  1  0.98777000  0.32639000  0.19358000  1
  C  C1064  1  0.98802000  0.31462000  0.89784000  1
  C  C1065  1  0.99259000  0.94719000  0.65798000  1
  C  C1066  1  0.99265000  0.87225000  0.71390000  1
  C  C1067  1  0.99451000  0.41131000  0.72622000  1
  C  C1068  1  0.99582000  0.70324000  0.07944000  1
  C  C1069  1  0.99597000  0.67766000  0.70792000  1
  C  C1070  1  0.99619000  0.16242000  0.85898000  1
  C  C1071  1  0.99668000  0.41738000  0.60536000  1
  C  C1072  1  0.99761000  0.19242000  0.80340000  1
  C  C1073  1  0.99979000  0.14369000  0.30318000  1
  O  O1074  1  0.02013000  0.16826000  0.90542000  1
  O  O1075  1  0.02148000  0.07920000  0.91296000  1
  O  O1076  1  0.02418000  0.11603000  0.28444000  1
  O  O1077  1  0.02821000  0.12823000  0.20256000  1
  O  O1078  1  0.03723000  0.73871000  0.85428000  1
  O  O1079  1  0.04083000  0.81918000  0.95100000  1
  O  O1080  1  0.08053000  0.72898000  0.34576000  1
  O  O1081  1  0.08847000  0.65213000  0.38234000  1
  O  O1082  1  0.08929000  0.76001000  0.45328000  1
  O  O1083  1  0.11839000  0.68151000  0.30896000  1
  O  O1084  1  0.14643000  0.62980000  0.36602000  1
  O  O1085  1  0.15653000  0.77458000  0.53144000  1
  O  O1086  1  0.16624000  0.10852000  0.08704000  1
  O  O1087  1  0.17435000  0.07433000  0.20256000  1
  O  O1088  1  0.18082000  0.95917000  0.04900000  1
  O  O1089  1  0.18513000  0.74434000  0.43536000  1
  O  O1090  1  0.19057000  0.62745000  0.30896000  1
  O  O1091  1  0.19367000  0.15867000  0.17818000  1
  O  O1092  1  0.19470000  0.00459000  0.17938000  1
  O  O1093  1  0.19515000  0.00705000  0.02438000  1
  O  O1094  1  0.21959000  0.73622000  0.36602000  1
  O  O1095  1  0.22542000  0.84347000  0.46856000  1
  O  O1096  1  0.23335000  0.06697000  0.15264000  1
  O  O1097  1  0.23999000  0.91071000  0.54672000  1
  O  O1098  1  0.24314000  0.62509000  0.46856000  1
  O  O1099  1  0.25023000  0.69102000  0.43536000  1
  O  O1100  1  0.25566000  0.81487000  0.56464000  1
  O  O1101  1  0.26026000  0.16841000  0.28444000  1
  O  O1102  1  0.26129000  0.96277000  0.14572000  1
  O  O1103  1  0.26284000  0.11471000  0.09458000  1
  O  O1104  1  0.26378000  0.78041000  0.63398000  1
  O  O1105  1  0.26523000  0.61678000  0.34576000  1
  O  O1106  1  0.26979000  0.70613000  0.61766000  1
  O  O1107  1  0.27102000  0.91947000  0.65424000  1
  O  O1108  1  0.29387000  0.73021000  0.38234000  1
  O  O1109  1  0.30673000  0.63601000  0.54672000  1
  O  O1110  1  0.30898000  0.74977000  0.56464000  1
  O  O1111  1  0.31437000  0.12930000  0.27468000  1
  O  O1112  1  0.31553000  0.02879000  0.17628000  1
  O  O1113  1  0.31609000  0.13244000  0.18092000  1
  O  O1114  1  0.31849000  0.88161000  0.69104000  1
  O  O1115  1  0.34787000  0.91153000  0.61766000  1
  O  O1116  1  0.36399000  0.69327000  0.45328000  1
  O  O1117  1  0.36678000  0.33053000  0.84576000  1
  O  O1118  1  0.37020000  0.85357000  0.63398000  1
  O  O1119  1  0.37255000  0.80943000  0.69104000  1
  O  O1120  1  0.37491000  0.75686000  0.53144000  1
  O  O1121  1  0.37509000  0.47542000  0.96856000  1
  O  O1122  1  0.37745000  0.36839000  0.80896000  1
  O  O1123  1  0.37980000  0.46959000  0.86602000  1
  O  O1124  1  0.38322000  0.73477000  0.65424000  1
  O  O1125  1  0.38601000  0.48999000  0.04672000  1
  O  O1126  1  0.40213000  0.54387000  0.88234000  1
  O  O1127  1  0.43151000  0.44057000  0.80896000  1
  O  O1128  1  0.43391000  0.20152000  0.31908000  1
  O  O1129  1  0.43447000  0.10251000  0.32372000  1
  O  O1130  1  0.43563000  0.10462000  0.22532000  1
  O  O1131  1  0.44102000  0.43513000  0.93536000  1
  O  O1132  1  0.44327000  0.33929000  0.95328000  1
  O  O1133  1  0.45613000  0.59787000  0.11766000  1
  O  O1134  1  0.47898000  0.51523000  0.84576000  1
  O  O1135  1  0.48021000  0.33847000  0.88234000  1
  O  O1136  1  0.48477000  0.52102000  0.15424000  1
  O  O1137  1  0.48622000  0.39643000  0.86602000  1
  O  O1138  1  0.48716000  0.27013000  0.40542000  1
  O  O1139  1  0.48871000  0.06705000  0.35428000  1
  O  O1140  1  0.48974000  0.13397000  0.21556000  1
  O  O1141  1  0.49434000  0.50023000  0.93536000  1
  O  O1142  1  0.49977000  0.50566000  0.06464000  1
  O  O1143  1  0.50686000  0.40653000  0.03144000  1
  O  O1144  1  0.51001000  0.61399000  0.95328000  1
  O  O1145  1  0.51665000  0.16433000  0.34736000  1
  O  O1146  1  0.52458000  0.62491000  0.03144000  1
  O  O1147  1  0.53041000  0.62020000  0.13398000  1
  O  O1148  1  0.55485000  0.23267000  0.47562000  1
  O  O1149  1  0.55530000  0.07521000  0.32062000  1
  O  O1150  1  0.55633000  0.23049000  0.32182000  1
  O  O1151  1  0.55943000  0.56849000  0.19104000  1
  O  O1152  1  0.56487000  0.55898000  0.06464000  1
  O  O1153  1  0.56918000  0.16017000  0.45100000  1
  O  O1154  1  0.57565000  0.12177000  0.29744000  1
  O  O1155  1  0.58376000  0.27148000  0.41296000  1
  O  O1156  1  0.59347000  0.49314000  0.96856000  1
  O  O1157  1  0.60357000  0.51378000  0.13398000  1
  O  O1158  1  0.63161000  0.62255000  0.19104000  1
  O  O1159  1  0.66071000  0.55673000  0.04672000  1
  O  O1160  1  0.66153000  0.51979000  0.11766000  1
  O  O1161  1  0.66947000  0.63322000  0.15424000  1
  O  O1162  1  0.70917000  0.11818000  0.54900000  1
  O  O1163  1  0.71277000  0.13443000  0.64572000  1
  O  O1164  1  0.72179000  0.17567000  0.29744000  1
  O  O1165  1  0.72582000  0.08159000  0.21556000  1
  O  O1166  1  0.72852000  0.41624000  0.58704000  1
  O  O1167  1  0.72987000  0.51284000  0.59458000  1
  O  O1168  1  0.75459000  0.23468000  0.67938000  1
  O  O1169  1  0.75705000  0.07923000  0.52438000  1
  O  O1170  1  0.76532000  0.24541000  0.32062000  1
  O  O1171  1  0.76549000  0.09133000  0.32182000  1
  O  O1172  1  0.76733000  0.44515000  0.52438000  1
  O  O1173  1  0.76951000  0.44367000  0.67818000  1
  O  O1174  1  0.77879000  0.11075000  0.67628000  1
  O  O1175  1  0.78969000  0.12070000  0.22532000  1
  O  O1176  1  0.79848000  0.56609000  0.68092000  1
  O  O1177  1  0.81697000  0.16929000  0.65264000  1
  O  O1178  1  0.81705000  0.11557000  0.85428000  1
  O  O1179  1  0.82433000  0.27821000  0.70256000  1
  O  O1180  1  0.82521000  0.01532000  0.82062000  1
  O  O1181  1  0.82920000  0.14148000  0.41296000  1
  O  O1182  1  0.82923000  0.01733000  0.02438000  1
  O  O1183  1  0.83071000  0.18303000  0.34736000  1
  O  O1184  1  0.83159000  0.73974000  0.71556000  1
  O  O1185  1  0.83174000  0.97987000  0.09458000  1
  O  O1186  1  0.83567000  0.48335000  0.65264000  1
  O  O1187  1  0.83983000  0.43082000  0.54900000  1
  O  O1188  1  0.84133000  0.80633000  0.82182000  1
  O  O1189  1  0.85251000  0.13925000  0.82372000  1
  O  O1190  1  0.85462000  0.03969000  0.72532000  1
  O  O1191  1  0.85852000  0.17080000  0.58704000  1
  O  O1192  1  0.86075000  0.14749000  0.17628000  1
  O  O1193  1  0.86471000  0.08174000  0.59458000  1
  O  O1194  1  0.86483000  0.04848000  0.18092000  1
  O  O1195  1  0.86557000  0.28723000  0.35428000  1
  O  O1196  1  0.86603000  0.51026000  0.78444000  1
  O  O1197  1  0.86756000  0.68391000  0.81908000  1
  O  O1198  1  0.86818000  0.08983000  0.04900000  1
  O  O1199  1  0.87070000  0.68563000  0.72532000  1
  O  O1200  1  0.87177000  0.97179000  0.79744000  1
  O  O1201  1  0.87823000  0.42435000  0.70256000  1
  O  O1202  1  0.87930000  0.21031000  0.77468000  1
  O  O1203  1  0.88182000  0.29083000  0.45100000  1
  O  O1204  1  0.88244000  0.11483000  0.68092000  1
  O  O1205  1  0.88397000  0.97582000  0.71556000  1
  O  O1206  1  0.88443000  0.18295000  0.14572000  1
  O  O1207  1  0.88517000  0.11756000  0.31908000  1
  O  O1208  1  0.88529000  0.73716000  0.90542000  1
  O  O1209  1  0.88925000  0.22121000  0.32372000  1
  O  O1210  1  0.89148000  0.83376000  0.91296000  1
  O  O1211  1  0.89538000  0.56437000  0.77468000  1
  O  O1212  1  0.89749000  0.56553000  0.67628000  1
  O  O1213  1  0.90867000  0.23451000  0.67818000  1
  O  O1214  1  0.91017000  0.13182000  0.95100000  1
  O  O1215  1  0.91433000  0.08071000  0.84736000  1
  O  O1216  1  0.91826000  0.13529000  0.40542000  1
  O  O1217  1  0.91841000  0.27418000  0.78444000  1
  O  O1218  1  0.91929000  0.08567000  0.15264000  1
  O  O1219  1  0.92077000  0.24295000  0.47562000  1
  O  O1220  1  0.92080000  0.97852000  0.08704000  1
  O  O1221  1  0.92479000  0.44470000  0.67938000  1
  O  O1222  1  0.92567000  0.82565000  0.79744000  1
  O  O1223  1  0.93295000  0.51129000  0.64572000  1
  O  O1224  1  0.93303000  0.76665000  0.84736000  1
  O  O1225  1  0.95152000  0.13517000  0.81908000  1
  O  O1226  1  0.96031000  0.14538000  0.27468000  1
  O  O1227  1  0.97121000  0.68447000  0.82372000  1
  O  O1228  1  0.98049000  0.01549000  0.82182000  1
  O  O1229  1  0.98267000  0.17077000  0.97562000  1
  O  O1230  1  0.98451000  0.01951000  0.17818000  1
  O  O1231  1  0.98468000  0.17479000  0.17938000  1
  O  O1232  1  0.99295000  0.80485000  0.97562000  1
  O  O1233  1  0.99541000  0.80530000  0.82062000  1
