# generated using pymatgen
data_NdU2C12O13
_symmetry_space_group_name_H-M   'P 1'
_cell_length_a   8.32030000
_cell_length_b   15.83670000
_cell_length_c   21.50470000
_cell_angle_alpha   90.00000000
_cell_angle_beta   90.00000000
_cell_angle_gamma   90.00000000
_symmetry_Int_Tables_number   1
_chemical_formula_structural   NdU2C12O13
_chemical_formula_sum   'Nd4 U8 C48 O52'
_cell_volume   2833.59034336
_cell_formula_units_Z   4
loop_
 _symmetry_equiv_pos_site_id
 _symmetry_equiv_pos_as_xyz
  1  'x, y, z'
loop_
 _atom_site_type_symbol
 _atom_site_label
 _atom_site_symmetry_multiplicity
 _atom_site_fract_x
 _atom_site_fract_y
 _atom_site_fract_z
 _atom_site_occupancy
  Nd  Nd0  1  0.14548000  0.15650000  0.72772000  1
  Nd  Nd1  1  0.35452000  0.65650000  0.72772000  1
  Nd  Nd2  1  0.64548000  0.34350000  0.22772000  1
  Nd  Nd3  1  0.85452000  0.84350000  0.22772000  1
  U  U4  1  0.01593000  0.63375000  0.47188000  1
  U  U5  1  0.02296000  0.35581000  0.47608000  1
  U  U6  1  0.47704000  0.85581000  0.47608000  1
  U  U7  1  0.48407000  0.13375000  0.47188000  1
  U  U8  1  0.51593000  0.86625000  0.97188000  1
  U  U9  1  0.52296000  0.14419000  0.97608000  1
  U  U10  1  0.97704000  0.64419000  0.97608000  1
  U  U11  1  0.98407000  0.36625000  0.97188000  1
  C  C12  1  0.01160000  0.82180000  0.98120000  1
  C  C13  1  0.01450000  0.91600000  0.97930000  1
  C  C14  1  0.01780000  0.18690000  0.97810000  1
  C  C15  1  0.02150000  0.09280000  0.98060000  1
  C  C16  1  0.07160000  0.95060000  0.52530000  1
  C  C17  1  0.07610000  0.03810000  0.52400000  1
  C  C18  1  0.10030000  0.95970000  0.93510000  1
  C  C19  1  0.10740000  0.04780000  0.93470000  1
  C  C20  1  0.16590000  0.90460000  0.57520000  1
  C  C21  1  0.17570000  0.08410000  0.57290000  1
  C  C22  1  0.19010000  0.91250000  0.88290000  1
  C  C23  1  0.19870000  0.09260000  0.88370000  1
  C  C24  1  0.30130000  0.59260000  0.88370000  1
  C  C25  1  0.30990000  0.41250000  0.88290000  1
  C  C26  1  0.32430000  0.58410000  0.57290000  1
  C  C27  1  0.33410000  0.40460000  0.57520000  1
  C  C28  1  0.39260000  0.54780000  0.93470000  1
  C  C29  1  0.39970000  0.45970000  0.93510000  1
  C  C30  1  0.42390000  0.53810000  0.52400000  1
  C  C31  1  0.42840000  0.45060000  0.52530000  1
  C  C32  1  0.47850000  0.59280000  0.98060000  1
  C  C33  1  0.48220000  0.68690000  0.97810000  1
  C  C34  1  0.48550000  0.41600000  0.97930000  1
  C  C35  1  0.48840000  0.32180000  0.98120000  1
  C  C36  1  0.51160000  0.67820000  0.48120000  1
  C  C37  1  0.51450000  0.58400000  0.47930000  1
  C  C38  1  0.51780000  0.31310000  0.47810000  1
  C  C39  1  0.52150000  0.40720000  0.48060000  1
  C  C40  1  0.57160000  0.54940000  0.02530000  1
  C  C41  1  0.57610000  0.46190000  0.02400000  1
  C  C42  1  0.60030000  0.54030000  0.43510000  1
  C  C43  1  0.60740000  0.45220000  0.43470000  1
  C  C44  1  0.66590000  0.59540000  0.07520000  1
  C  C45  1  0.67570000  0.41590000  0.07290000  1
  C  C46  1  0.69010000  0.58750000  0.38290000  1
  C  C47  1  0.69870000  0.40740000  0.38370000  1
  C  C48  1  0.80130000  0.90740000  0.38370000  1
  C  C49  1  0.80990000  0.08750000  0.38290000  1
  C  C50  1  0.82430000  0.91590000  0.07290000  1
  C  C51  1  0.83410000  0.09540000  0.07520000  1
  C  C52  1  0.89260000  0.95220000  0.43470000  1
  C  C53  1  0.89970000  0.04030000  0.43510000  1
  C  C54  1  0.92390000  0.96190000  0.02400000  1
  C  C55  1  0.92840000  0.04940000  0.02530000  1
  C  C56  1  0.97850000  0.90720000  0.48060000  1
  C  C57  1  0.98220000  0.81310000  0.47810000  1
  C  C58  1  0.98550000  0.08400000  0.47930000  1
  C  C59  1  0.98840000  0.17820000  0.48120000  1
  O  O60  1  0.04250000  0.77200000  0.52380000  1
  O  O61  1  0.06050000  0.21660000  0.52420000  1
  O  O62  1  0.07640000  0.49490000  0.45270000  1
  O  O63  1  0.07760000  0.22610000  0.93340000  1
  O  O64  1  0.08330000  0.78150000  0.93910000  1
  O  O65  1  0.09990000  0.89160000  0.62580000  1
  O  O66  1  0.11150000  0.90040000  0.83410000  1
  O  O67  1  0.11600000  0.09250000  0.62500000  1
  O  O68  1  0.13300000  0.09370000  0.83200000  1
  O  O69  1  0.15820000  0.61760000  0.89360000  1
  O  O70  1  0.16540000  0.39560000  0.88900000  1
  O  O71  1  0.18460000  0.60730000  0.55830000  1
  O  O72  1  0.18930000  0.38360000  0.56220000  1
  O  O73  1  0.31070000  0.88360000  0.56220000  1
  O  O74  1  0.31540000  0.10730000  0.55830000  1
  O  O75  1  0.33460000  0.89560000  0.88900000  1
  O  O76  1  0.34180000  0.11760000  0.89360000  1
  O  O77  1  0.36700000  0.59370000  0.83200000  1
  O  O78  1  0.38400000  0.59250000  0.62500000  1
  O  O79  1  0.38850000  0.40040000  0.83410000  1
  O  O80  1  0.40010000  0.39160000  0.62580000  1
  O  O81  1  0.41670000  0.28150000  0.93910000  1
  O  O82  1  0.42240000  0.72610000  0.93340000  1
  O  O83  1  0.42360000  0.99490000  0.45270000  1
  O  O84  1  0.43950000  0.71660000  0.52420000  1
  O  O85  1  0.45750000  0.27200000  0.52380000  1
  O  O86  1  0.54250000  0.72800000  0.02380000  1
  O  O87  1  0.56050000  0.28340000  0.02420000  1
  O  O88  1  0.57640000  0.00510000  0.95270000  1
  O  O89  1  0.57760000  0.27390000  0.43340000  1
  O  O90  1  0.58330000  0.71850000  0.43910000  1
  O  O91  1  0.59990000  0.60840000  0.12580000  1
  O  O92  1  0.61150000  0.59960000  0.33410000  1
  O  O93  1  0.61600000  0.40750000  0.12500000  1
  O  O94  1  0.63300000  0.40630000  0.33200000  1
  O  O95  1  0.65820000  0.88240000  0.39360000  1
  O  O96  1  0.66540000  0.10440000  0.38900000  1
  O  O97  1  0.68460000  0.89270000  0.05830000  1
  O  O98  1  0.68930000  0.11640000  0.06220000  1
  O  O99  1  0.81070000  0.61640000  0.06220000  1
  O  O100  1  0.81540000  0.39270000  0.05830000  1
  O  O101  1  0.83460000  0.60440000  0.38900000  1
  O  O102  1  0.84180000  0.38240000  0.39360000  1
  O  O103  1  0.86700000  0.90630000  0.33200000  1
  O  O104  1  0.88400000  0.90750000  0.12500000  1
  O  O105  1  0.88850000  0.09960000  0.33410000  1
  O  O106  1  0.90010000  0.10840000  0.12580000  1
  O  O107  1  0.91670000  0.21850000  0.43910000  1
  O  O108  1  0.92240000  0.77390000  0.43340000  1
  O  O109  1  0.92360000  0.50510000  0.95270000  1
  O  O110  1  0.93950000  0.78340000  0.02420000  1
  O  O111  1  0.95750000  0.22800000  0.02380000  1
