# generated using pymatgen
data_CdH4C8(N2O)2
_symmetry_space_group_name_H-M   'P 1'
_cell_length_a   12.38000000
_cell_length_b   16.48800000
_cell_length_c   21.24600000
_cell_angle_alpha   90.00000000
_cell_angle_beta   90.00000000
_cell_angle_gamma   90.00000000
_symmetry_Int_Tables_number   1
_chemical_formula_structural   CdH4C8(N2O)2
_chemical_formula_sum   'Cd16 H64 C128 N64 O32'
_cell_volume   4336.76411424
_cell_formula_units_Z   16
loop_
 _symmetry_equiv_pos_site_id
 _symmetry_equiv_pos_as_xyz
  1  'x, y, z'
loop_
 _atom_site_type_symbol
 _atom_site_label
 _atom_site_symmetry_multiplicity
 _atom_site_fract_x
 _atom_site_fract_y
 _atom_site_fract_z
 _atom_site_occupancy
  Cd  Cd0  1  0.01182000  0.32997000  0.29977000  1
  Cd  Cd1  1  0.01919000  0.43969000  0.77130000  1
  Cd  Cd2  1  0.22644000  0.82072000  0.68725000  1
  Cd  Cd3  1  0.22915000  0.70078000  0.23160000  1
  Cd  Cd4  1  0.27085000  0.20078000  0.26840000  1
  Cd  Cd5  1  0.27356000  0.32072000  0.81275000  1
  Cd  Cd6  1  0.48081000  0.93969000  0.72870000  1
  Cd  Cd7  1  0.48818000  0.82997000  0.20023000  1
  Cd  Cd8  1  0.51182000  0.17003000  0.79977000  1
  Cd  Cd9  1  0.51919000  0.06031000  0.27130000  1
  Cd  Cd10  1  0.72644000  0.67928000  0.18725000  1
  Cd  Cd11  1  0.72915000  0.79922000  0.73160000  1
  Cd  Cd12  1  0.77085000  0.29922000  0.76840000  1
  Cd  Cd13  1  0.77356000  0.17928000  0.31275000  1
  Cd  Cd14  1  0.98081000  0.56031000  0.22870000  1
  Cd  Cd15  1  0.98818000  0.67003000  0.70023000  1
  H  H16  1  0.00900000  0.82230000  0.89490000  1
  H  H17  1  0.01180000  0.07200000  0.90950000  1
  H  H18  1  0.02540000  0.40130000  0.16960000  1
  H  H19  1  0.03100000  0.20420000  0.62240000  1
  H  H20  1  0.04020000  0.58910000  0.01590000  1
  H  H21  1  0.05530000  0.91800000  0.35950000  1
  H  H22  1  0.07100000  0.79620000  0.99580000  1
  H  H23  1  0.08590000  0.04070000  0.05940000  1
  H  H24  1  0.10210000  0.32000000  0.96560000  1
  H  H25  1  0.12660000  0.87280000  0.81960000  1
  H  H26  1  0.13610000  0.37330000  0.55420000  1
  H  H27  1  0.19270000  0.26520000  0.04800000  1
  H  H28  1  0.19380000  0.23150000  0.66980000  1
  H  H29  1  0.20030000  0.00560000  0.73890000  1
  H  H30  1  0.20300000  0.88910000  0.22870000  1
  H  H31  1  0.22930000  0.08470000  0.11700000  1
  H  H32  1  0.27070000  0.58470000  0.38300000  1
  H  H33  1  0.29700000  0.38910000  0.27130000  1
  H  H34  1  0.29970000  0.50560000  0.76110000  1
  H  H35  1  0.30620000  0.73150000  0.83020000  1
  H  H36  1  0.30730000  0.76520000  0.45200000  1
  H  H37  1  0.36390000  0.87330000  0.94580000  1
  H  H38  1  0.37340000  0.37280000  0.68040000  1
  H  H39  1  0.39790000  0.82000000  0.53440000  1
  H  H40  1  0.41410000  0.54070000  0.44060000  1
  H  H41  1  0.42900000  0.29620000  0.50420000  1
  H  H42  1  0.44470000  0.41800000  0.14050000  1
  H  H43  1  0.45980000  0.08910000  0.48410000  1
  H  H44  1  0.46900000  0.70420000  0.87760000  1
  H  H45  1  0.47460000  0.90130000  0.33040000  1
  H  H46  1  0.48820000  0.57200000  0.59050000  1
  H  H47  1  0.49100000  0.32230000  0.60510000  1
  H  H48  1  0.50900000  0.67770000  0.39490000  1
  H  H49  1  0.51180000  0.42800000  0.40950000  1
  H  H50  1  0.52540000  0.09870000  0.66960000  1
  H  H51  1  0.53100000  0.29580000  0.12240000  1
  H  H52  1  0.54020000  0.91090000  0.51590000  1
  H  H53  1  0.55530000  0.58200000  0.85950000  1
  H  H54  1  0.57100000  0.70380000  0.49580000  1
  H  H55  1  0.58590000  0.45930000  0.55940000  1
  H  H56  1  0.60210000  0.18000000  0.46560000  1
  H  H57  1  0.62660000  0.62720000  0.31960000  1
  H  H58  1  0.63610000  0.12670000  0.05420000  1
  H  H59  1  0.69270000  0.23480000  0.54800000  1
  H  H60  1  0.69380000  0.26850000  0.16980000  1
  H  H61  1  0.70030000  0.49440000  0.23890000  1
  H  H62  1  0.70300000  0.61090000  0.72870000  1
  H  H63  1  0.72930000  0.41530000  0.61700000  1
  H  H64  1  0.77070000  0.91530000  0.88300000  1
  H  H65  1  0.79700000  0.11090000  0.77130000  1
  H  H66  1  0.79970000  0.99440000  0.26110000  1
  H  H67  1  0.80620000  0.76850000  0.33020000  1
  H  H68  1  0.80730000  0.73480000  0.95200000  1
  H  H69  1  0.86390000  0.62670000  0.44580000  1
  H  H70  1  0.87340000  0.12720000  0.18040000  1
  H  H71  1  0.89790000  0.68000000  0.03440000  1
  H  H72  1  0.91410000  0.95930000  0.94060000  1
  H  H73  1  0.92900000  0.20380000  0.00420000  1
  H  H74  1  0.94470000  0.08200000  0.64050000  1
  H  H75  1  0.95980000  0.41090000  0.98410000  1
  H  H76  1  0.96900000  0.79580000  0.37760000  1
  H  H77  1  0.97460000  0.59870000  0.83040000  1
  H  H78  1  0.98820000  0.92800000  0.09050000  1
  H  H79  1  0.99100000  0.17770000  0.10510000  1
  C  C80  1  0.00030000  0.39130000  0.01770000  1
  C  C81  1  0.01240000  0.95260000  0.69860000  1
  C  C82  1  0.01360000  0.09090000  0.65660000  1
  C  C83  1  0.02270000  0.58240000  0.92100000  1
  C  C84  1  0.02340000  0.82320000  0.18040000  1
  C  C85  1  0.03880000  0.38500000  0.12840000  1
  C  C86  1  0.05010000  0.94290000  0.11250000  1
  C  C87  1  0.06400000  0.16500000  0.64730000  1
  C  C88  1  0.06560000  0.03000000  0.68990000  1
  C  C89  1  0.08090000  0.83200000  0.90520000  1
  C  C90  1  0.08480000  0.33520000  0.00650000  1
  C  C91  1  0.08500000  0.89670000  0.16300000  1
  C  C92  1  0.10630000  0.52250000  0.90950000  1
  C  C93  1  0.10780000  0.01160000  0.09470000  1
  C  C94  1  0.11800000  0.81650000  0.96550000  1
  C  C95  1  0.11960000  0.32840000  0.11640000  1
  C  C96  1  0.13980000  0.30410000  0.05540000  1
  C  C97  1  0.15160000  0.86210000  0.86010000  1
  C  C98  1  0.16210000  0.18080000  0.67460000  1
  C  C99  1  0.16500000  0.04590000  0.71610000  1
  C  C100  1  0.16530000  0.40170000  0.67470000  1
  C  C101  1  0.16870000  0.51700000  0.28840000  1
  C  C102  1  0.17740000  0.29000000  0.17150000  1
  C  C103  1  0.17760000  0.92010000  0.19530000  1
  C  C104  1  0.18070000  0.63920000  0.76000000  1
  C  C105  1  0.19460000  0.03650000  0.12760000  1
  C  C106  1  0.20740000  0.36180000  0.56470000  1
  C  C107  1  0.21390000  0.12210000  0.70900000  1
  C  C108  1  0.22550000  0.83130000  0.98060000  1
  C  C109  1  0.23190000  0.99000000  0.17740000  1
  C  C110  1  0.23560000  0.31310000  0.45630000  1
  C  C111  1  0.24200000  0.37600000  0.62520000  1
  C  C112  1  0.25800000  0.87600000  0.87480000  1
  C  C113  1  0.26440000  0.81310000  0.04370000  1
  C  C114  1  0.26810000  0.49000000  0.32260000  1
  C  C115  1  0.27450000  0.33130000  0.51940000  1
  C  C116  1  0.28610000  0.62210000  0.79100000  1
  C  C117  1  0.29260000  0.86180000  0.93530000  1
  C  C118  1  0.30540000  0.53650000  0.37240000  1
  C  C119  1  0.31930000  0.13920000  0.74000000  1
  C  C120  1  0.32240000  0.42010000  0.30470000  1
  C  C121  1  0.32260000  0.79000000  0.32850000  1
  C  C122  1  0.33130000  0.01700000  0.21160000  1
  C  C123  1  0.33470000  0.90170000  0.82530000  1
  C  C124  1  0.33500000  0.54590000  0.78390000  1
  C  C125  1  0.33790000  0.68080000  0.82540000  1
  C  C126  1  0.34840000  0.36210000  0.63990000  1
  C  C127  1  0.36020000  0.80410000  0.44460000  1
  C  C128  1  0.38040000  0.82840000  0.38360000  1
  C  C129  1  0.38200000  0.31650000  0.53450000  1
  C  C130  1  0.39220000  0.51160000  0.40530000  1
  C  C131  1  0.39370000  0.02250000  0.59050000  1
  C  C132  1  0.41500000  0.39670000  0.33700000  1
  C  C133  1  0.41520000  0.83520000  0.49350000  1
  C  C134  1  0.41910000  0.33200000  0.59480000  1
  C  C135  1  0.43440000  0.53000000  0.81010000  1
  C  C136  1  0.43600000  0.66500000  0.85270000  1
  C  C137  1  0.44990000  0.44290000  0.38750000  1
  C  C138  1  0.46120000  0.88500000  0.37160000  1
  C  C139  1  0.47660000  0.32320000  0.31960000  1
  C  C140  1  0.47730000  0.08240000  0.57900000  1
  C  C141  1  0.48640000  0.59090000  0.84340000  1
  C  C142  1  0.48760000  0.45260000  0.80140000  1
  C  C143  1  0.49970000  0.89130000  0.48230000  1
  C  C144  1  0.50030000  0.10870000  0.51770000  1
  C  C145  1  0.51240000  0.54740000  0.19860000  1
  C  C146  1  0.51360000  0.40910000  0.15660000  1
  C  C147  1  0.52270000  0.91760000  0.42100000  1
  C  C148  1  0.52340000  0.67680000  0.68040000  1
  C  C149  1  0.53880000  0.11500000  0.62840000  1
  C  C150  1  0.55010000  0.55710000  0.61250000  1
  C  C151  1  0.56400000  0.33500000  0.14730000  1
  C  C152  1  0.56560000  0.47000000  0.18990000  1
  C  C153  1  0.58090000  0.66800000  0.40520000  1
  C  C154  1  0.58480000  0.16480000  0.50650000  1
  C  C155  1  0.58500000  0.60330000  0.66300000  1
  C  C156  1  0.60630000  0.97750000  0.40950000  1
  C  C157  1  0.60780000  0.48840000  0.59470000  1
  C  C158  1  0.61800000  0.68350000  0.46550000  1
  C  C159  1  0.61960000  0.17160000  0.61640000  1
  C  C160  1  0.63980000  0.19590000  0.55540000  1
  C  C161  1  0.65160000  0.63790000  0.36010000  1
  C  C162  1  0.66210000  0.31920000  0.17460000  1
  C  C163  1  0.66500000  0.45410000  0.21610000  1
  C  C164  1  0.66530000  0.09830000  0.17470000  1
  C  C165  1  0.66870000  0.98300000  0.78840000  1
  C  C166  1  0.67740000  0.21000000  0.67150000  1
  C  C167  1  0.67760000  0.57990000  0.69530000  1
  C  C168  1  0.68070000  0.86080000  0.26000000  1
  C  C169  1  0.69460000  0.46350000  0.62760000  1
  C  C170  1  0.70740000  0.13820000  0.06470000  1
  C  C171  1  0.71390000  0.37790000  0.20900000  1
  C  C172  1  0.72550000  0.66870000  0.48060000  1
  C  C173  1  0.73190000  0.51000000  0.67740000  1
  C  C174  1  0.73560000  0.18690000  0.95630000  1
  C  C175  1  0.74200000  0.12400000  0.12520000  1
  C  C176  1  0.75800000  0.62400000  0.37480000  1
  C  C177  1  0.76440000  0.68690000  0.54370000  1
  C  C178  1  0.76810000  0.01000000  0.82260000  1
  C  C179  1  0.77450000  0.16870000  0.01940000  1
  C  C180  1  0.78610000  0.87790000  0.29100000  1
  C  C181  1  0.79260000  0.63820000  0.43530000  1
  C  C182  1  0.80540000  0.96350000  0.87240000  1
  C  C183  1  0.81930000  0.36080000  0.24000000  1
  C  C184  1  0.82240000  0.07990000  0.80470000  1
  C  C185  1  0.82260000  0.71000000  0.82850000  1
  C  C186  1  0.83130000  0.48300000  0.71160000  1
  C  C187  1  0.83470000  0.59830000  0.32530000  1
  C  C188  1  0.83500000  0.95410000  0.28390000  1
  C  C189  1  0.83790000  0.81920000  0.32540000  1
  C  C190  1  0.84840000  0.13790000  0.13990000  1
  C  C191  1  0.86020000  0.69590000  0.94460000  1
  C  C192  1  0.88040000  0.67160000  0.88360000  1
  C  C193  1  0.88200000  0.18350000  0.03450000  1
  C  C194  1  0.89220000  0.98840000  0.90530000  1
  C  C195  1  0.89370000  0.47750000  0.09050000  1
  C  C196  1  0.91500000  0.10330000  0.83700000  1
  C  C197  1  0.91520000  0.66480000  0.99350000  1
  C  C198  1  0.91910000  0.16800000  0.09480000  1
  C  C199  1  0.93440000  0.97000000  0.31010000  1
  C  C200  1  0.93600000  0.83500000  0.35270000  1
  C  C201  1  0.94990000  0.05710000  0.88750000  1
  C  C202  1  0.96120000  0.61500000  0.87160000  1
  C  C203  1  0.97660000  0.17680000  0.81960000  1
  C  C204  1  0.97730000  0.41760000  0.07900000  1
  C  C205  1  0.98640000  0.90910000  0.34340000  1
  C  C206  1  0.98760000  0.04740000  0.30140000  1
  C  C207  1  0.99970000  0.60870000  0.98230000  1
  N  N208  1  0.01970000  0.17570000  0.29070000  1
  N  N209  1  0.02110000  0.29510000  0.78850000  1
  N  N210  1  0.06090000  0.87830000  0.69940000  1
  N  N211  1  0.06260000  0.75770000  0.20880000  1
  N  N212  1  0.08020000  0.18600000  0.83440000  1
  N  N213  1  0.09400000  0.05520000  0.29400000  1
  N  N214  1  0.10530000  0.26110000  0.81440000  1
  N  N215  1  0.10840000  0.46750000  0.86280000  1
  N  N216  1  0.11080000  0.13570000  0.28680000  1
  N  N217  1  0.14010000  0.31040000  0.37300000  1
  N  N218  1  0.14550000  0.34340000  0.43060000  1
  N  N219  1  0.19210000  0.51470000  0.94610000  1
  N  N220  1  0.20200000  0.42670000  0.87220000  1
  N  N221  1  0.21440000  0.76240000  0.08350000  1
  N  N222  1  0.22360000  0.26200000  0.36470000  1
  N  N223  1  0.24980000  0.95400000  0.57820000  1
  N  N224  1  0.25020000  0.45400000  0.92180000  1
  N  N225  1  0.27640000  0.76200000  0.13530000  1
  N  N226  1  0.28560000  0.26240000  0.41650000  1
  N  N227  1  0.29800000  0.92670000  0.62780000  1
  N  N228  1  0.30790000  0.01470000  0.55390000  1
  N  N229  1  0.35450000  0.84340000  0.06940000  1
  N  N230  1  0.35990000  0.81040000  0.12700000  1
  N  N231  1  0.38920000  0.63570000  0.21320000  1
  N  N232  1  0.39160000  0.96750000  0.63720000  1
  N  N233  1  0.39470000  0.76110000  0.68560000  1
  N  N234  1  0.40600000  0.55520000  0.20600000  1
  N  N235  1  0.41980000  0.68600000  0.66560000  1
  N  N236  1  0.43740000  0.25770000  0.29120000  1
  N  N237  1  0.43910000  0.37830000  0.80060000  1
  N  N238  1  0.47890000  0.79510000  0.71150000  1
  N  N239  1  0.48030000  0.67570000  0.20930000  1
  N  N240  1  0.51970000  0.32430000  0.79070000  1
  N  N241  1  0.52110000  0.20490000  0.28850000  1
  N  N242  1  0.56090000  0.62170000  0.19940000  1
  N  N243  1  0.56260000  0.74230000  0.70880000  1
  N  N244  1  0.58020000  0.31400000  0.33440000  1
  N  N245  1  0.59400000  0.44480000  0.79400000  1
  N  N246  1  0.60530000  0.23890000  0.31440000  1
  N  N247  1  0.60840000  0.03250000  0.36280000  1
  N  N248  1  0.61080000  0.36430000  0.78680000  1
  N  N249  1  0.64010000  0.18960000  0.87300000  1
  N  N250  1  0.64550000  0.15660000  0.93060000  1
  N  N251  1  0.69210000  0.98530000  0.44610000  1
  N  N252  1  0.70200000  0.07330000  0.37220000  1
  N  N253  1  0.71440000  0.73760000  0.58350000  1
  N  N254  1  0.72360000  0.23800000  0.86470000  1
  N  N255  1  0.74980000  0.54600000  0.07820000  1
  N  N256  1  0.75020000  0.04600000  0.42180000  1
  N  N257  1  0.77640000  0.73800000  0.63530000  1
  N  N258  1  0.78560000  0.23760000  0.91650000  1
  N  N259  1  0.79800000  0.57330000  0.12780000  1
  N  N260  1  0.80790000  0.48530000  0.05390000  1
  N  N261  1  0.85450000  0.65660000  0.56940000  1
  N  N262  1  0.85990000  0.68960000  0.62700000  1
  N  N263  1  0.88920000  0.86430000  0.71320000  1
  N  N264  1  0.89160000  0.53250000  0.13720000  1
  N  N265  1  0.89470000  0.73890000  0.18560000  1
  N  N266  1  0.90600000  0.94480000  0.70600000  1
  N  N267  1  0.91980000  0.81400000  0.16560000  1
  N  N268  1  0.93740000  0.24230000  0.79120000  1
  N  N269  1  0.93910000  0.12170000  0.30060000  1
  N  N270  1  0.97890000  0.70490000  0.21150000  1
  N  N271  1  0.98030000  0.82430000  0.70930000  1
  O  O272  1  0.07140000  0.42580000  0.66090000  1
  O  O273  1  0.10440000  0.46660000  0.26620000  1
  O  O274  1  0.11600000  0.58370000  0.74630000  1
  O  O275  1  0.14240000  0.30000000  0.22670000  1
  O  O276  1  0.15060000  0.59270000  0.28210000  1
  O  O277  1  0.15540000  0.71260000  0.74620000  1
  O  O278  1  0.19270000  0.39570000  0.73260000  1
  O  O279  1  0.24060000  0.74740000  0.33730000  1
  O  O280  1  0.25940000  0.24740000  0.16270000  1
  O  O281  1  0.30730000  0.89570000  0.76740000  1
  O  O282  1  0.34460000  0.21260000  0.75380000  1
  O  O283  1  0.34940000  0.09270000  0.21790000  1
  O  O284  1  0.35760000  0.80000000  0.27330000  1
  O  O285  1  0.38400000  0.08370000  0.75370000  1
  O  O286  1  0.39560000  0.96660000  0.23380000  1
  O  O287  1  0.42860000  0.92580000  0.83910000  1
  O  O288  1  0.57140000  0.07420000  0.16090000  1
  O  O289  1  0.60440000  0.03340000  0.76620000  1
  O  O290  1  0.61600000  0.91630000  0.24630000  1
  O  O291  1  0.64240000  0.20000000  0.72670000  1
  O  O292  1  0.65060000  0.90730000  0.78210000  1
  O  O293  1  0.65540000  0.78740000  0.24620000  1
  O  O294  1  0.69270000  0.10430000  0.23260000  1
  O  O295  1  0.74060000  0.75260000  0.83730000  1
  O  O296  1  0.75940000  0.25260000  0.66270000  1
  O  O297  1  0.80730000  0.60430000  0.26740000  1
  O  O298  1  0.84460000  0.28740000  0.25380000  1
  O  O299  1  0.84940000  0.40730000  0.71790000  1
  O  O300  1  0.85760000  0.70000000  0.77330000  1
  O  O301  1  0.88400000  0.41630000  0.25370000  1
  O  O302  1  0.89560000  0.53340000  0.73380000  1
  O  O303  1  0.92860000  0.57420000  0.33910000  1
