# generated using pymatgen
data_TbH3C8NO7
_symmetry_space_group_name_H-M   'P 1'
_cell_length_a   7.69570000
_cell_length_b   10.21820000
_cell_length_c   15.94080000
_cell_angle_alpha   86.94500000
_cell_angle_beta   86.03500000
_cell_angle_gamma   76.83100000
_symmetry_Int_Tables_number   1
_chemical_formula_structural   TbH3C8NO7
_chemical_formula_sum   'Tb4 H12 C32 N4 O28'
_cell_volume   1216.72804864
_cell_formula_units_Z   4
loop_
 _symmetry_equiv_pos_site_id
 _symmetry_equiv_pos_as_xyz
  1  'x, y, z'
loop_
 _atom_site_type_symbol
 _atom_site_label
 _atom_site_symmetry_multiplicity
 _atom_site_fract_x
 _atom_site_fract_y
 _atom_site_fract_z
 _atom_site_occupancy
  Tb  Tb0  1  0.35401000  0.33674000  0.06341000  1
  Tb  Tb1  1  0.38725000  0.12948000  0.67557000  1
  Tb  Tb2  1  0.61275000  0.87052000  0.32443000  1
  Tb  Tb3  1  0.64599000  0.66326000  0.93659000  1
  H  H4  1  0.07630000  0.11440000  0.06370000  1
  H  H5  1  0.09130000  0.35580000  0.36030000  1
  H  H6  1  0.09590000  0.88030000  0.80940000  1
  H  H7  1  0.16200000  0.52570000  0.70580000  1
  H  H8  1  0.24730000  0.90930000  0.01820000  1
  H  H9  1  0.33380000  0.45570000  0.36890000  1
  H  H10  1  0.66620000  0.54430000  0.63110000  1
  H  H11  1  0.75270000  0.09070000  0.98180000  1
  H  H12  1  0.83800000  0.47430000  0.29420000  1
  H  H13  1  0.90410000  0.11970000  0.19060000  1
  H  H14  1  0.90870000  0.64420000  0.63970000  1
  H  H15  1  0.92370000  0.88560000  0.93630000  1
  C  C16  1  0.02320000  0.96280000  0.82810000  1
  C  C17  1  0.05000000  0.53310000  0.96380000  1
  C  C18  1  0.06010000  0.48800000  0.70520000  1
  C  C19  1  0.07690000  0.03400000  0.09670000  1
  C  C20  1  0.08120000  0.80230000  0.19410000  1
  C  C21  1  0.08550000  0.68580000  0.25320000  1
  C  C22  1  0.08880000  0.44260000  0.33520000  1
  C  C23  1  0.17790000  0.91250000  0.07000000  1
  C  C24  1  0.17970000  0.79580000  0.11740000  1
  C  C25  1  0.23260000  0.62350000  0.29780000  1
  C  C26  1  0.23370000  0.50030000  0.33860000  1
  C  C27  1  0.28790000  0.66000000  0.08790000  1
  C  C28  1  0.37900000  0.69870000  0.30570000  1
  C  C29  1  0.38830000  0.14270000  0.22650000  1
  C  C30  1  0.42730000  0.95880000  0.50650000  1
  C  C31  1  0.48950000  0.93920000  0.84160000  1
  C  C32  1  0.51050000  0.06080000  0.15840000  1
  C  C33  1  0.57270000  0.04120000  0.49350000  1
  C  C34  1  0.61170000  0.85730000  0.77350000  1
  C  C35  1  0.62100000  0.30130000  0.69430000  1
  C  C36  1  0.71210000  0.34000000  0.91210000  1
  C  C37  1  0.76630000  0.49970000  0.66140000  1
  C  C38  1  0.76740000  0.37650000  0.70220000  1
  C  C39  1  0.82030000  0.20420000  0.88260000  1
  C  C40  1  0.82210000  0.08750000  0.93000000  1
  C  C41  1  0.91120000  0.55740000  0.66480000  1
  C  C42  1  0.91450000  0.31420000  0.74680000  1
  C  C43  1  0.91880000  0.19770000  0.80590000  1
  C  C44  1  0.92310000  0.96600000  0.90330000  1
  C  C45  1  0.93990000  0.51200000  0.29480000  1
  C  C46  1  0.95000000  0.46690000  0.03620000  1
  C  C47  1  0.97680000  0.03720000  0.17190000  1
  N  N48  1  0.01760000  0.07730000  0.78130000  1
  N  N49  1  0.06150000  0.36770000  0.74350000  1
  N  N50  1  0.93850000  0.63230000  0.25650000  1
  N  N51  1  0.98240000  0.92270000  0.21870000  1
  O  O52  1  0.03910000  0.37120000  0.07820000  1
  O  O53  1  0.10490000  0.07100000  0.70580000  1
  O  O54  1  0.21020000  0.29600000  0.77690000  1
  O  O55  1  0.21500000  0.48380000  0.95260000  1
  O  O56  1  0.24580000  0.55600000  0.11750000  1
  O  O57  1  0.29080000  0.25180000  0.20250000  1
  O  O58  1  0.33880000  0.96940000  0.57680000  1
  O  O59  1  0.36140000  0.81400000  0.27140000  1
  O  O60  1  0.38640000  0.04560000  0.81840000  1
  O  O61  1  0.39640000  0.09050000  0.29990000  1
  O  O62  1  0.40650000  0.89050000  0.44680000  1
  O  O63  1  0.41150000  0.66340000  0.03140000  1
  O  O64  1  0.48940000  0.35480000  0.65150000  1
  O  O65  1  0.49910000  0.10700000  0.08320000  1
  O  O66  1  0.50090000  0.89300000  0.91680000  1
  O  O67  1  0.51060000  0.64520000  0.34850000  1
  O  O68  1  0.58850000  0.33660000  0.96860000  1
  O  O69  1  0.59350000  0.10950000  0.55320000  1
  O  O70  1  0.60360000  0.90950000  0.70010000  1
  O  O71  1  0.61360000  0.95440000  0.18160000  1
  O  O72  1  0.63860000  0.18600000  0.72860000  1
  O  O73  1  0.66120000  0.03060000  0.42320000  1
  O  O74  1  0.70920000  0.74820000  0.79750000  1
  O  O75  1  0.75420000  0.44400000  0.88250000  1
  O  O76  1  0.78500000  0.51620000  0.04740000  1
  O  O77  1  0.78980000  0.70400000  0.22310000  1
  O  O78  1  0.89510000  0.92900000  0.29420000  1
  O  O79  1  0.96090000  0.62880000  0.92180000  1
