# generated using pymatgen
data_ZnH18C22(NO2)2
_symmetry_space_group_name_H-M   'P 1'
_cell_length_a   6.20470000
_cell_length_b   17.74600000
_cell_length_c   20.42300000
_cell_angle_alpha   90.00000000
_cell_angle_beta   98.45230000
_cell_angle_gamma   90.00000000
_symmetry_Int_Tables_number   1
_chemical_formula_structural   ZnH18C22(NO2)2
_chemical_formula_sum   'Zn4 H72 C88 N8 O16'
_cell_volume   2224.32345643
_cell_formula_units_Z   4
loop_
 _symmetry_equiv_pos_site_id
 _symmetry_equiv_pos_as_xyz
  1  'x, y, z'
loop_
 _atom_site_type_symbol
 _atom_site_label
 _atom_site_symmetry_multiplicity
 _atom_site_fract_x
 _atom_site_fract_y
 _atom_site_fract_z
 _atom_site_occupancy
  Zn  Zn0  1  0.21191000  0.51380000  0.28062000  1
  Zn  Zn1  1  0.28809000  0.01380000  0.21938000  1
  Zn  Zn2  1  0.71191000  0.98620000  0.78062000  1
  Zn  Zn3  1  0.78809000  0.48620000  0.71938000  1
  H  H4  1  0.00620000  0.20910000  0.91620000  1
  H  H5  1  0.02100000  0.42250000  0.95740000  1
  H  H6  1  0.02730000  0.02970000  0.62590000  1
  H  H7  1  0.04550000  0.80080000  0.54260000  1
  H  H8  1  0.05650000  0.25880000  0.21520000  1
  H  H9  1  0.05870000  0.75420000  0.25110000  1
  H  H10  1  0.07880000  0.07060000  0.01370000  1
  H  H11  1  0.08420000  0.39900000  0.37620000  1
  H  H12  1  0.09620000  0.20730000  0.80680000  1
  H  H13  1  0.10730000  0.39360000  0.65590000  1
  H  H14  1  0.13490000  0.95040000  0.47420000  1
  H  H15  1  0.14340000  0.78600000  0.76550000  1
  H  H16  1  0.14500000  0.61680000  0.54770000  1
  H  H17  1  0.15620000  0.90440000  0.91880000  1
  H  H18  1  0.16110000  0.81640000  0.65260000  1
  H  H19  1  0.19910000  0.57700000  0.14180000  1
  H  H20  1  0.20660000  0.74940000  0.00720000  1
  H  H21  1  0.24840000  0.52680000  0.77630000  1
  H  H22  1  0.25160000  0.02680000  0.72370000  1
  H  H23  1  0.29340000  0.24940000  0.49280000  1
  H  H24  1  0.30090000  0.07700000  0.35820000  1
  H  H25  1  0.33890000  0.31640000  0.84740000  1
  H  H26  1  0.34380000  0.40440000  0.58120000  1
  H  H27  1  0.35500000  0.11680000  0.95230000  1
  H  H28  1  0.35660000  0.28600000  0.73450000  1
  H  H29  1  0.36510000  0.45040000  0.02580000  1
  H  H30  1  0.39270000  0.89360000  0.84410000  1
  H  H31  1  0.40380000  0.70730000  0.69320000  1
  H  H32  1  0.41580000  0.89900000  0.12380000  1
  H  H33  1  0.42120000  0.57060000  0.48630000  1
  H  H34  1  0.44130000  0.25420000  0.24890000  1
  H  H35  1  0.44350000  0.75880000  0.28480000  1
  H  H36  1  0.45450000  0.30080000  0.95740000  1
  H  H37  1  0.47270000  0.52970000  0.87410000  1
  H  H38  1  0.47900000  0.92250000  0.54260000  1
  H  H39  1  0.49380000  0.70910000  0.58380000  1
  H  H40  1  0.50620000  0.29090000  0.41620000  1
  H  H41  1  0.52100000  0.07750000  0.45740000  1
  H  H42  1  0.52730000  0.47030000  0.12590000  1
  H  H43  1  0.54550000  0.69920000  0.04260000  1
  H  H44  1  0.55650000  0.24120000  0.71520000  1
  H  H45  1  0.55870000  0.74580000  0.75110000  1
  H  H46  1  0.57880000  0.42940000  0.51370000  1
  H  H47  1  0.58420000  0.10100000  0.87620000  1
  H  H48  1  0.59620000  0.29270000  0.30680000  1
  H  H49  1  0.60730000  0.10640000  0.15590000  1
  H  H50  1  0.63490000  0.54960000  0.97420000  1
  H  H51  1  0.64340000  0.71400000  0.26550000  1
  H  H52  1  0.64500000  0.88320000  0.04770000  1
  H  H53  1  0.65620000  0.59560000  0.41880000  1
  H  H54  1  0.66110000  0.68360000  0.15260000  1
  H  H55  1  0.69910000  0.92300000  0.64180000  1
  H  H56  1  0.70660000  0.75060000  0.50720000  1
  H  H57  1  0.74840000  0.97320000  0.27630000  1
  H  H58  1  0.75160000  0.47320000  0.22370000  1
  H  H59  1  0.79340000  0.25060000  0.99280000  1
  H  H60  1  0.80090000  0.42300000  0.85820000  1
  H  H61  1  0.83890000  0.18360000  0.34740000  1
  H  H62  1  0.84380000  0.09560000  0.08120000  1
  H  H63  1  0.85500000  0.38320000  0.45230000  1
  H  H64  1  0.85660000  0.21400000  0.23450000  1
  H  H65  1  0.86510000  0.04960000  0.52580000  1
  H  H66  1  0.89270000  0.60640000  0.34410000  1
  H  H67  1  0.90380000  0.79270000  0.19320000  1
  H  H68  1  0.91580000  0.60100000  0.62380000  1
  H  H69  1  0.92120000  0.92940000  0.98630000  1
  H  H70  1  0.94130000  0.24580000  0.74890000  1
  H  H71  1  0.94350000  0.74120000  0.78480000  1
  H  H72  1  0.95450000  0.19920000  0.45740000  1
  H  H73  1  0.97270000  0.97030000  0.37410000  1
  H  H74  1  0.97900000  0.57750000  0.04260000  1
  H  H75  1  0.99380000  0.79090000  0.08380000  1
  C  C76  1  0.00340000  0.56070000  0.61510000  1
  C  C77  1  0.01430000  0.21710000  0.24120000  1
  C  C78  1  0.02660000  0.79410000  0.63880000  1
  C  C79  1  0.04280000  0.21430000  0.42670000  1
  C  C80  1  0.05320000  0.79010000  0.21510000  1
  C  C81  1  0.06240000  0.55480000  0.13880000  1
  C  C82  1  0.06930000  0.44490000  0.92110000  1
  C  C83  1  0.07240000  0.02430000  0.99220000  1
  C  C84  1  0.09120000  0.97970000  0.50760000  1
  C  C85  1  0.09830000  0.23000000  0.31430000  1
  C  C86  1  0.10860000  0.14530000  0.21950000  1
  C  C87  1  0.11550000  0.43930000  0.63410000  1
  C  C88  1  0.12060000  0.86710000  0.24350000  1
  C  C89  1  0.12880000  0.76930000  0.09850000  1
  C  C90  1  0.14160000  0.57080000  0.56940000  1
  C  C91  1  0.16440000  0.00780000  0.62800000  1
  C  C92  1  0.19710000  0.76220000  0.16620000  1
  C  C93  1  0.19930000  0.50630000  0.81330000  1
  C  C94  1  0.22450000  0.01300000  0.94460000  1
  C  C95  1  0.22660000  0.97760000  0.57200000  1
  C  C96  1  0.24190000  0.94540000  0.91080000  1
  C  C97  1  0.24310000  0.24490000  0.44780000  1
  C  C98  1  0.25690000  0.74490000  0.05220000  1
  C  C99  1  0.25810000  0.44540000  0.58920000  1
  C  C100  1  0.27340000  0.47760000  0.92800000  1
  C  C101  1  0.27550000  0.51300000  0.55540000  1
  C  C102  1  0.30070000  0.00630000  0.68670000  1
  C  C103  1  0.30290000  0.26220000  0.33380000  1
  C  C104  1  0.33560000  0.50780000  0.87200000  1
  C  C105  1  0.35840000  0.07080000  0.93060000  1
  C  C106  1  0.37120000  0.26930000  0.40150000  1
  C  C107  1  0.37940000  0.36710000  0.25650000  1
  C  C108  1  0.38450000  0.93930000  0.86590000  1
  C  C109  1  0.39140000  0.64530000  0.28050000  1
  C  C110  1  0.40170000  0.73000000  0.18570000  1
  C  C111  1  0.40880000  0.47970000  0.99240000  1
  C  C112  1  0.42760000  0.52430000  0.50780000  1
  C  C113  1  0.43070000  0.94490000  0.57890000  1
  C  C114  1  0.43760000  0.05480000  0.36120000  1
  C  C115  1  0.44680000  0.29010000  0.28490000  1
  C  C116  1  0.45720000  0.71430000  0.07330000  1
  C  C117  1  0.47340000  0.29410000  0.86120000  1
  C  C118  1  0.48570000  0.71710000  0.25880000  1
  C  C119  1  0.49660000  0.06070000  0.88490000  1
  C  C120  1  0.50340000  0.93930000  0.11510000  1
  C  C121  1  0.51430000  0.28290000  0.74120000  1
  C  C122  1  0.52660000  0.70590000  0.13880000  1
  C  C123  1  0.54280000  0.28570000  0.92670000  1
  C  C124  1  0.55320000  0.70990000  0.71510000  1
  C  C125  1  0.56240000  0.94520000  0.63880000  1
  C  C126  1  0.56930000  0.05510000  0.42110000  1
  C  C127  1  0.57240000  0.47570000  0.49220000  1
  C  C128  1  0.59120000  0.52030000  0.00760000  1
  C  C129  1  0.59830000  0.27000000  0.81430000  1
  C  C130  1  0.60860000  0.35470000  0.71950000  1
  C  C131  1  0.61550000  0.06070000  0.13410000  1
  C  C132  1  0.62060000  0.63290000  0.74350000  1
  C  C133  1  0.62880000  0.73070000  0.59850000  1
  C  C134  1  0.64160000  0.92920000  0.06940000  1
  C  C135  1  0.66440000  0.49220000  0.12800000  1
  C  C136  1  0.69710000  0.73780000  0.66620000  1
  C  C137  1  0.69930000  0.99370000  0.31330000  1
  C  C138  1  0.72450000  0.48700000  0.44460000  1
  C  C139  1  0.72660000  0.52240000  0.07200000  1
  C  C140  1  0.74190000  0.55460000  0.41080000  1
  C  C141  1  0.74310000  0.25510000  0.94780000  1
  C  C142  1  0.75690000  0.75510000  0.55220000  1
  C  C143  1  0.75810000  0.05460000  0.08920000  1
  C  C144  1  0.77340000  0.02240000  0.42800000  1
  C  C145  1  0.77550000  0.98700000  0.05540000  1
  C  C146  1  0.80070000  0.49370000  0.18670000  1
  C  C147  1  0.80290000  0.23780000  0.83380000  1
  C  C148  1  0.83560000  0.99220000  0.37200000  1
  C  C149  1  0.85840000  0.42920000  0.43060000  1
  C  C150  1  0.87120000  0.23070000  0.90150000  1
  C  C151  1  0.87940000  0.13290000  0.75650000  1
  C  C152  1  0.88450000  0.56070000  0.36590000  1
  C  C153  1  0.89140000  0.85470000  0.78050000  1
  C  C154  1  0.90170000  0.77000000  0.68570000  1
  C  C155  1  0.90880000  0.02030000  0.49240000  1
  C  C156  1  0.92760000  0.97570000  0.00780000  1
  C  C157  1  0.93070000  0.55510000  0.07890000  1
  C  C158  1  0.93760000  0.44520000  0.86120000  1
  C  C159  1  0.94680000  0.20990000  0.78490000  1
  C  C160  1  0.95720000  0.78570000  0.57330000  1
  C  C161  1  0.97340000  0.20590000  0.36120000  1
  C  C162  1  0.98570000  0.78290000  0.75880000  1
  C  C163  1  0.99660000  0.43930000  0.38490000  1
  N  N164  1  0.00220000  0.52330000  0.19400000  1
  N  N165  1  0.01275000  0.50410000  0.35185000  1
  N  N166  1  0.48725000  0.00410000  0.14815000  1
  N  N167  1  0.49780000  0.02330000  0.30600000  1
  N  N168  1  0.50220000  0.97670000  0.69400000  1
  N  N169  1  0.51275000  0.99590000  0.85185000  1
  N  N170  1  0.98725000  0.49590000  0.64815000  1
  N  N171  1  0.99780000  0.47670000  0.80600000  1
  O  O172  1  0.05904000  0.08450000  0.24284000  1
  O  O173  1  0.13425000  0.87990000  0.30285000  1
  O  O174  1  0.15241000  0.91594000  0.20091000  1
  O  O175  1  0.24310000  0.14630000  0.18100000  1
  O  O176  1  0.25690000  0.64630000  0.31900000  1
  O  O177  1  0.34759000  0.41594000  0.29909000  1
  O  O178  1  0.36575000  0.37990000  0.19715000  1
  O  O179  1  0.44096000  0.58450000  0.25716000  1
  O  O180  1  0.55904000  0.41550000  0.74284000  1
  O  O181  1  0.63425000  0.62010000  0.80285000  1
  O  O182  1  0.65241000  0.58406000  0.70091000  1
  O  O183  1  0.74310000  0.35370000  0.68100000  1
  O  O184  1  0.75690000  0.85370000  0.81900000  1
  O  O185  1  0.84759000  0.08406000  0.79909000  1
  O  O186  1  0.86575000  0.12010000  0.69715000  1
  O  O187  1  0.94096000  0.91550000  0.75716000  1
