# generated using pymatgen
data_Co3H24C28(N10O)2
_symmetry_space_group_name_H-M   'P 1'
_cell_length_a   6.70980000
_cell_length_b   13.09450000
_cell_length_c   21.34200000
_cell_angle_alpha   90.00000000
_cell_angle_beta   90.00000000
_cell_angle_gamma   102.50600000
_symmetry_Int_Tables_number   1
_chemical_formula_structural   Co3H24C28(N10O)2
_chemical_formula_sum   'Co6 H48 C56 N40 O4'
_cell_volume   1830.64881563
_cell_formula_units_Z   2
loop_
 _symmetry_equiv_pos_site_id
 _symmetry_equiv_pos_as_xyz
  1  'x, y, z'
loop_
 _atom_site_type_symbol
 _atom_site_label
 _atom_site_symmetry_multiplicity
 _atom_site_fract_x
 _atom_site_fract_y
 _atom_site_fract_z
 _atom_site_occupancy
  Co  Co0  1  0.00000000  0.00000000  0.50000000  1
  Co  Co1  1  0.01802000  0.54682000  0.06693000  1
  Co  Co2  1  0.48198000  0.95318000  0.56693000  1
  Co  Co3  1  0.50000000  0.50000000  0.00000000  1
  Co  Co4  1  0.51802000  0.04682000  0.43307000  1
  Co  Co5  1  0.98198000  0.45318000  0.93307000  1
  H  H6  1  0.02590000  0.24310000  0.25210000  1
  H  H7  1  0.04270000  0.41790000  0.57810000  1
  H  H8  1  0.04310000  0.11120000  0.32260000  1
  H  H9  1  0.04760000  0.59400000  0.56880000  1
  H  H10  1  0.06160000  0.96920000  0.07870000  1
  H  H11  1  0.06600000  0.14480000  0.08690000  1
  H  H12  1  0.09820000  0.74870000  0.30240000  1
  H  H13  1  0.10150000  0.53150000  0.82110000  1
  H  H14  1  0.11390000  0.61450000  0.23400000  1
  H  H15  1  0.13500000  0.72300000  0.89330000  1
  H  H16  1  0.14200000  0.75800000  0.40700000  1
  H  H17  1  0.21520000  0.98180000  0.35260000  1
  H  H18  1  0.28480000  0.51820000  0.85260000  1
  H  H19  1  0.35800000  0.74200000  0.90700000  1
  H  H20  1  0.36500000  0.77700000  0.39330000  1
  H  H21  1  0.38610000  0.88550000  0.73400000  1
  H  H22  1  0.39850000  0.96850000  0.32110000  1
  H  H23  1  0.40180000  0.75130000  0.80240000  1
  H  H24  1  0.43400000  0.35520000  0.58690000  1
  H  H25  1  0.43840000  0.53080000  0.57870000  1
  H  H26  1  0.45240000  0.90600000  0.06880000  1
  H  H27  1  0.45690000  0.38880000  0.82260000  1
  H  H28  1  0.45730000  0.08210000  0.07810000  1
  H  H29  1  0.47410000  0.25690000  0.75210000  1
  H  H30  1  0.52590000  0.74310000  0.24790000  1
  H  H31  1  0.54270000  0.91790000  0.92190000  1
  H  H32  1  0.54310000  0.61120000  0.17740000  1
  H  H33  1  0.54760000  0.09400000  0.93120000  1
  H  H34  1  0.56160000  0.46920000  0.42130000  1
  H  H35  1  0.56600000  0.64480000  0.41310000  1
  H  H36  1  0.59820000  0.24870000  0.19760000  1
  H  H37  1  0.60150000  0.03150000  0.67890000  1
  H  H38  1  0.61390000  0.11450000  0.26600000  1
  H  H39  1  0.63500000  0.22300000  0.60670000  1
  H  H40  1  0.64200000  0.25800000  0.09300000  1
  H  H41  1  0.71520000  0.48180000  0.14740000  1
  H  H42  1  0.78480000  0.01820000  0.64740000  1
  H  H43  1  0.85800000  0.24200000  0.59300000  1
  H  H44  1  0.86500000  0.27700000  0.10670000  1
  H  H45  1  0.88610000  0.38550000  0.76600000  1
  H  H46  1  0.89850000  0.46850000  0.17890000  1
  H  H47  1  0.90180000  0.25130000  0.69760000  1
  H  H48  1  0.93400000  0.85520000  0.91310000  1
  H  H49  1  0.93840000  0.03080000  0.92130000  1
  H  H50  1  0.95240000  0.40600000  0.43120000  1
  H  H51  1  0.95690000  0.88880000  0.67740000  1
  H  H52  1  0.95730000  0.58210000  0.42190000  1
  H  H53  1  0.97410000  0.75690000  0.74790000  1
  C  C54  1  0.00500000  0.36020000  0.76310000  1
  C  C55  1  0.01540000  0.28030000  0.72174000  1
  C  C56  1  0.05802000  0.90292000  0.91717000  1
  C  C57  1  0.06079000  0.00839000  0.92204000  1
  C  C58  1  0.07670000  0.45380000  0.42782000  1
  C  C59  1  0.07980000  0.55980000  0.42256000  1
  C  C60  1  0.14380000  0.21680000  0.25443000  1
  C  C61  1  0.15380000  0.13750000  0.29667000  1
  C  C62  1  0.17182000  0.40262000  0.80029000  1
  C  C63  1  0.19237000  0.24267000  0.71562000  1
  C  C64  1  0.20502000  0.16462000  0.66681000  1
  C  C65  1  0.23808000  0.86738000  0.91829000  1
  C  C66  1  0.24347000  0.08147000  0.92801000  1
  C  C67  1  0.24437000  0.19257000  0.93865000  1
  C  C68  1  0.25563000  0.30743000  0.43865000  1
  C  C69  1  0.25653000  0.41853000  0.42801000  1
  C  C70  1  0.26192000  0.63262000  0.41829000  1
  C  C71  1  0.29498000  0.33538000  0.16681000  1
  C  C72  1  0.30763000  0.25733000  0.21562000  1
  C  C73  1  0.32818000  0.09738000  0.30029000  1
  C  C74  1  0.34620000  0.36250000  0.79667000  1
  C  C75  1  0.35620000  0.28320000  0.75443000  1
  C  C76  1  0.42020000  0.94020000  0.92256000  1
  C  C77  1  0.42330000  0.04620000  0.92782000  1
  C  C78  1  0.43921000  0.49161000  0.42204000  1
  C  C79  1  0.44198000  0.59708000  0.41717000  1
  C  C80  1  0.48460000  0.21970000  0.22174000  1
  C  C81  1  0.49500000  0.13980000  0.26310000  1
  C  C82  1  0.50500000  0.86020000  0.73690000  1
  C  C83  1  0.51540000  0.78030000  0.77826000  1
  C  C84  1  0.55802000  0.40292000  0.58283000  1
  C  C85  1  0.56079000  0.50839000  0.57796000  1
  C  C86  1  0.57670000  0.95380000  0.07218000  1
  C  C87  1  0.57980000  0.05980000  0.07744000  1
  C  C88  1  0.64380000  0.71680000  0.24557000  1
  C  C89  1  0.65380000  0.63750000  0.20333000  1
  C  C90  1  0.67182000  0.90262000  0.69971000  1
  C  C91  1  0.69237000  0.74267000  0.78438000  1
  C  C92  1  0.70502000  0.66462000  0.83319000  1
  C  C93  1  0.73808000  0.36738000  0.58171000  1
  C  C94  1  0.74347000  0.58147000  0.57199000  1
  C  C95  1  0.74437000  0.69257000  0.56135000  1
  C  C96  1  0.75563000  0.80743000  0.06135000  1
  C  C97  1  0.75653000  0.91853000  0.07199000  1
  C  C98  1  0.76192000  0.13262000  0.08171000  1
  C  C99  1  0.79498000  0.83538000  0.33319000  1
  C  C100  1  0.80763000  0.75733000  0.28438000  1
  C  C101  1  0.82818000  0.59738000  0.19971000  1
  C  C102  1  0.84620000  0.86250000  0.70333000  1
  C  C103  1  0.85620000  0.78320000  0.74557000  1
  C  C104  1  0.92020000  0.44020000  0.57744000  1
  C  C105  1  0.92330000  0.54620000  0.57218000  1
  C  C106  1  0.93921000  0.99161000  0.07796000  1
  C  C107  1  0.94198000  0.09708000  0.08283000  1
  C  C108  1  0.98460000  0.71970000  0.27826000  1
  C  C109  1  0.99500000  0.63980000  0.23690000  1
  N  N110  1  0.05811000  0.13351000  0.62383000  1
  N  N111  1  0.07852000  0.23342000  0.93534000  1
  N  N112  1  0.09016000  0.23506000  0.45550000  1
  N  N113  1  0.13046000  0.06676000  0.58703000  1
  N  N114  1  0.13699000  0.37989000  0.15751000  1
  N  N115  1  0.14548000  0.33428000  0.95071000  1
  N  N116  1  0.15655000  0.48535000  0.84267000  1
  N  N117  1  0.15740000  0.14670000  0.46224000  1
  N  N118  1  0.18853000  0.44103000  0.10664000  1
  N  N119  1  0.23467000  0.76017000  0.91794000  1
  N  N120  1  0.26533000  0.73983000  0.41794000  1
  N  N121  1  0.31147000  0.05897000  0.60664000  1
  N  N122  1  0.34260000  0.35330000  0.96224000  1
  N  N123  1  0.34345000  0.01465000  0.34267000  1
  N  N124  1  0.35452000  0.16572000  0.45071000  1
  N  N125  1  0.36301000  0.12011000  0.65751000  1
  N  N126  1  0.36954000  0.43324000  0.08703000  1
  N  N127  1  0.40984000  0.26494000  0.95550000  1
  N  N128  1  0.42148000  0.26658000  0.43534000  1
  N  N129  1  0.44189000  0.36649000  0.12383000  1
  N  N130  1  0.55811000  0.63351000  0.87617000  1
  N  N131  1  0.57852000  0.73342000  0.56466000  1
  N  N132  1  0.59016000  0.73506000  0.04450000  1
  N  N133  1  0.63046000  0.56676000  0.91297000  1
  N  N134  1  0.63699000  0.87989000  0.34249000  1
  N  N135  1  0.64548000  0.83428000  0.54929000  1
  N  N136  1  0.65655000  0.98535000  0.65733000  1
  N  N137  1  0.65740000  0.64670000  0.03776000  1
  N  N138  1  0.68853000  0.94103000  0.39336000  1
  N  N139  1  0.73467000  0.26017000  0.58206000  1
  N  N140  1  0.76533000  0.23983000  0.08206000  1
  N  N141  1  0.81147000  0.55897000  0.89336000  1
  N  N142  1  0.84260000  0.85330000  0.53776000  1
  N  N143  1  0.84345000  0.51465000  0.15733000  1
  N  N144  1  0.85452000  0.66572000  0.04929000  1
  N  N145  1  0.86301000  0.62011000  0.84249000  1
  N  N146  1  0.86954000  0.93324000  0.41297000  1
  N  N147  1  0.90984000  0.76494000  0.54450000  1
  N  N148  1  0.92148000  0.76658000  0.06466000  1
  N  N149  1  0.94189000  0.86649000  0.37617000  1
  O  O150  1  0.21289000  0.54999000  0.98789000  1
  O  O151  1  0.28711000  0.95001000  0.48789000  1
  O  O152  1  0.71289000  0.04999000  0.51211000  1
  O  O153  1  0.78711000  0.45001000  0.01211000  1
