# generated using pymatgen
data_GdCu4H24C36I4(NO2)3
_symmetry_space_group_name_H-M   'P 1'
_cell_length_a   9.63230000
_cell_length_b   16.67600000
_cell_length_c   21.18200000
_cell_angle_alpha   104.08000000
_cell_angle_beta   100.39000000
_cell_angle_gamma   97.03000000
_symmetry_Int_Tables_number   1
_chemical_formula_structural   GdCu4H24C36I4(NO2)3
_chemical_formula_sum   'Gd2 Cu8 H48 C72 I8 N6 O12'
_cell_volume   3196.42210222
_cell_formula_units_Z   2
loop_
 _symmetry_equiv_pos_site_id
 _symmetry_equiv_pos_as_xyz
  1  'x, y, z'
loop_
 _atom_site_type_symbol
 _atom_site_label
 _atom_site_symmetry_multiplicity
 _atom_site_fract_x
 _atom_site_fract_y
 _atom_site_fract_z
 _atom_site_occupancy
  Gd  Gd0  1  0.22336000  0.98650000  0.50269000  1
  Gd  Gd1  1  0.77664000  0.01350000  0.49731000  1
  Cu  Cu2  1  0.25496000  0.32682000  0.00169000  1
  Cu  Cu3  1  0.31938000  0.44455000  0.12205000  1
  Cu  Cu4  1  0.46200000  0.31722000  0.09884000  1
  Cu  Cu5  1  0.48626000  0.55759000  0.95963000  1
  Cu  Cu6  1  0.51374000  0.44241000  0.04037000  1
  Cu  Cu7  1  0.53800000  0.68278000  0.90116000  1
  Cu  Cu8  1  0.68062000  0.55545000  0.87795000  1
  Cu  Cu9  1  0.74504000  0.67318000  0.99831000  1
  H  H10  1  0.02360000  0.45400000  0.12250000  1
  H  H11  1  0.03160000  0.89890000  0.19380000  1
  H  H12  1  0.04170000  0.13250000  0.18160000  1
  H  H13  1  0.05220000  0.66666667  0.03340000  1
  H  H14  1  0.06600000  0.75880000  0.33040000  1
  H  H15  1  0.06990000  0.75350000  0.83030000  1
  H  H16  1  0.12100000  0.45610000  0.84100000  1
  H  H17  1  0.16530000  0.17550000  0.88210000  1
  H  H18  1  0.18600000  0.86330000  0.67730000  1
  H  H19  1  0.19100000  0.05620000  0.34180000  1
  H  H20  1  0.21720000  0.08180000  0.24260000  1
  H  H21  1  0.22510000  0.70990000  0.26640000  1
  H  H22  1  0.22590000  0.34860000  0.83790000  1
  H  H23  1  0.23200000  0.89310000  0.28970000  1
  H  H24  1  0.23530000  0.69530000  0.88310000  1
  H  H25  1  0.26210000  0.74010000  0.10360000  1
  H  H26  1  0.31730000  0.16930000  0.69570000  1
  H  H27  1  0.35570000  0.00010000  0.67650000  1
  H  H28  1  0.36120000  0.61580000  0.22430000  1
  H  H29  1  0.36570000  0.04270000  0.79070000  1
  H  H30  1  0.37250000  0.87680000  0.76970000  1
  H  H31  1  0.38750000  0.26760000  0.79950000  1
  H  H32  1  0.42830000  0.87810000  0.13680000  1
  H  H33  1  0.46580000  0.18620000  0.17590000  1
  H  H34  1  0.53420000  0.81380000  0.82410000  1
  H  H35  1  0.57170000  0.12190000  0.86320000  1
  H  H36  1  0.61250000  0.73240000  0.20050000  1
  H  H37  1  0.62750000  0.12320000  0.23030000  1
  H  H38  1  0.63430000  0.95730000  0.20930000  1
  H  H39  1  0.63880000  0.38420000  0.77570000  1
  H  H40  1  0.64430000  0.99990000  0.32350000  1
  H  H41  1  0.68270000  0.83070000  0.30430000  1
  H  H42  1  0.73790000  0.25990000  0.89640000  1
  H  H43  1  0.76470000  0.30470000  0.11690000  1
  H  H44  1  0.76800000  0.10690000  0.71030000  1
  H  H45  1  0.77410000  0.65140000  0.16210000  1
  H  H46  1  0.77490000  0.29010000  0.73360000  1
  H  H47  1  0.78280000  0.91820000  0.75740000  1
  H  H48  1  0.80900000  0.94380000  0.65820000  1
  H  H49  1  0.81400000  0.13670000  0.32270000  1
  H  H50  1  0.83470000  0.82450000  0.11790000  1
  H  H51  1  0.87900000  0.54390000  0.15900000  1
  H  H52  1  0.93010000  0.24650000  0.16970000  1
  H  H53  1  0.93400000  0.24120000  0.66960000  1
  H  H54  1  0.94780000  0.33340000  0.96660000  1
  H  H55  1  0.95830000  0.86750000  0.81840000  1
  H  H56  1  0.96840000  0.10110000  0.80620000  1
  H  H57  1  0.97640000  0.54600000  0.87750000  1
  C  C58  1  0.00160000  0.90560000  0.65760000  1
  C  C59  1  0.02190000  0.92530000  0.59340000  1
  C  C60  1  0.02220000  0.44000000  0.82630000  1
  C  C61  1  0.02470000  0.24650000  0.69590000  1
  C  C62  1  0.03080000  0.12400000  0.22240000  1
  C  C63  1  0.03420000  0.63850000  0.21850000  1
  C  C64  1  0.03990000  0.85240000  0.16090000  1
  C  C65  1  0.04900000  0.71510000  0.06560000  1
  C  C66  1  0.06230000  0.30470000  0.75690000  1
  C  C67  1  0.06530000  0.50650000  0.15120000  1
  C  C68  1  0.07600000  0.13240000  0.60500000  1
  C  C69  1  0.07800000  0.19320000  0.88450000  1
  C  C70  1  0.09080000  0.85700000  0.75380000  1
  C  C71  1  0.10470000  0.87380000  0.69360000  1
  C  C72  1  0.11860000  0.19450000  0.67190000  1
  C  C73  1  0.12060000  0.07760000  0.31790000  1
  C  C74  1  0.13590000  0.09260000  0.25880000  1
  C  C75  1  0.16450000  0.76650000  0.82700000  1
  C  C76  1  0.17440000  0.82950000  0.15840000  1
  C  C77  1  0.17610000  0.75840000  0.10830000  1
  C  C78  1  0.18080000  0.65840000  0.23690000  1
  C  C79  1  0.19610000  0.81990000  0.78970000  1
  C  C80  1  0.19930000  0.31060000  0.79580000  1
  C  C81  1  0.25380000  0.20300000  0.71110000  1
  C  C82  1  0.26200000  0.60100000  0.21100000  1
  C  C83  1  0.26490000  0.73170000  0.85920000  1
  C  C84  1  0.29610000  0.26160000  0.77350000  1
  C  C85  1  0.30670000  0.87730000  0.20470000  1
  C  C86  1  0.31330000  0.90530000  0.27350000  1
  C  C87  1  0.34040000  0.83840000  0.79140000  1
  C  C88  1  0.42950000  0.89670000  0.18200000  1
  C  C89  1  0.43750000  0.95030000  0.31750000  1
  C  C90  1  0.43820000  0.80070000  0.82510000  1
  C  C91  1  0.44000000  0.03020000  0.70590000  1
  C  C92  1  0.44300000  0.97650000  0.39110000  1
  C  C93  1  0.44600000  0.05660000  0.77430000  1
  C  C94  1  0.55400000  0.94340000  0.22570000  1
  C  C95  1  0.55700000  0.02350000  0.60890000  1
  C  C96  1  0.56000000  0.96980000  0.29410000  1
  C  C97  1  0.56180000  0.19930000  0.17490000  1
  C  C98  1  0.56250000  0.04970000  0.68250000  1
  C  C99  1  0.57050000  0.10330000  0.81800000  1
  C  C100  1  0.65960000  0.16160000  0.20860000  1
  C  C101  1  0.68670000  0.09470000  0.72650000  1
  C  C102  1  0.69330000  0.12270000  0.79530000  1
  C  C103  1  0.70390000  0.73840000  0.22650000  1
  C  C104  1  0.73510000  0.26830000  0.14080000  1
  C  C105  1  0.73800000  0.39900000  0.78900000  1
  C  C106  1  0.74620000  0.79700000  0.28890000  1
  C  C107  1  0.80070000  0.68940000  0.20420000  1
  C  C108  1  0.80390000  0.18010000  0.21030000  1
  C  C109  1  0.81920000  0.34160000  0.76310000  1
  C  C110  1  0.82390000  0.24160000  0.89170000  1
  C  C111  1  0.82560000  0.17050000  0.84160000  1
  C  C112  1  0.83550000  0.23350000  0.17300000  1
  C  C113  1  0.86410000  0.90740000  0.74120000  1
  C  C114  1  0.87940000  0.92240000  0.68210000  1
  C  C115  1  0.88140000  0.80550000  0.32810000  1
  C  C116  1  0.89530000  0.12620000  0.30640000  1
  C  C117  1  0.90920000  0.14300000  0.24620000  1
  C  C118  1  0.92200000  0.80680000  0.11550000  1
  C  C119  1  0.92400000  0.86760000  0.39500000  1
  C  C120  1  0.93470000  0.49350000  0.84880000  1
  C  C121  1  0.93770000  0.69530000  0.24310000  1
  C  C122  1  0.95100000  0.28490000  0.93440000  1
  C  C123  1  0.96010000  0.14760000  0.83910000  1
  C  C124  1  0.96580000  0.36150000  0.78150000  1
  C  C125  1  0.96920000  0.87600000  0.77760000  1
  C  C126  1  0.97530000  0.75350000  0.30410000  1
  C  C127  1  0.97780000  0.56000000  0.17370000  1
  C  C128  1  0.97810000  0.07470000  0.40660000  1
  C  C129  1  0.99840000  0.09440000  0.34240000  1
  I  I130  1  0.19593000  0.28844000  0.11258000  1
  I  I131  1  0.26220000  0.48978000  0.99999000  1
  I  I132  1  0.41129000  0.52246000  0.82574000  1
  I  I133  1  0.48967000  0.27962000  0.97062000  1
  I  I134  1  0.51033000  0.72038000  0.02938000  1
  I  I135  1  0.58871000  0.47754000  0.17426000  1
  I  I136  1  0.73780000  0.51022000  0.00001000  1
  I  I137  1  0.80407000  0.71156000  0.88742000  1
  N  N138  1  0.07730000  0.26190000  0.93240000  1
  N  N139  1  0.20800000  0.52590000  0.16840000  1
  N  N140  1  0.40220000  0.74660000  0.85880000  1
  N  N141  1  0.59780000  0.25340000  0.14120000  1
  N  N142  1  0.79200000  0.47410000  0.83160000  1
  N  N143  1  0.92270000  0.73810000  0.06760000  1
  O  O144  1  0.04840000  0.87550000  0.42793000  1
  O  O145  1  0.07660000  0.05090000  0.43990000  1
  O  O146  1  0.14070000  0.91640000  0.57789000  1
  O  O147  1  0.17040000  0.09140000  0.58677000  1
  O  O148  1  0.33060000  0.95680000  0.40992000  1
  O  O149  1  0.44110000  0.98430000  0.57023000  1
  O  O150  1  0.55890000  0.01570000  0.42977000  1
  O  O151  1  0.66940000  0.04320000  0.59008000  1
  O  O152  1  0.82960000  0.90860000  0.41323000  1
  O  O153  1  0.85930000  0.08360000  0.42211000  1
  O  O154  1  0.92340000  0.94910000  0.56010000  1
  O  O155  1  0.95160000  0.12450000  0.57207000  1
