# generated using pymatgen
data_MgH2(CO2)2
_symmetry_space_group_name_H-M   'P 1'
_cell_length_a   9.83390000
_cell_length_b   11.27900000
_cell_length_c   14.76600000
_cell_angle_alpha   91.56500000
_cell_angle_beta   90.00000000
_cell_angle_gamma   90.00000000
_symmetry_Int_Tables_number   1
_chemical_formula_structural   MgH2(CO2)2
_chemical_formula_sum   'Mg12 H24 C24 O48'
_cell_volume   1637.18297504
_cell_formula_units_Z   12
loop_
 _symmetry_equiv_pos_site_id
 _symmetry_equiv_pos_as_xyz
  1  'x, y, z'
loop_
 _atom_site_type_symbol
 _atom_site_label
 _atom_site_symmetry_multiplicity
 _atom_site_fract_x
 _atom_site_fract_y
 _atom_site_fract_z
 _atom_site_occupancy
  Mg  Mg0  1  0.00000000  0.00000000  0.00000000  1
  Mg  Mg1  1  0.00000000  0.50000000  0.00000000  1
  Mg  Mg2  1  0.07498000  0.75674000  0.13493000  1
  Mg  Mg3  1  0.11695000  0.26020000  0.69398000  1
  Mg  Mg4  1  0.38305000  0.76020000  0.19398000  1
  Mg  Mg5  1  0.42502000  0.25674000  0.63493000  1
  Mg  Mg6  1  0.50000000  0.00000000  0.50000000  1
  Mg  Mg7  1  0.50000000  0.50000000  0.50000000  1
  Mg  Mg8  1  0.57498000  0.74326000  0.36507000  1
  Mg  Mg9  1  0.61695000  0.23980000  0.80602000  1
  Mg  Mg10  1  0.88305000  0.73980000  0.30602000  1
  Mg  Mg11  1  0.92502000  0.24326000  0.86507000  1
  H  H12  1  0.04850000  0.52460000  0.74140000  1
  H  H13  1  0.11940000  0.05910000  0.54900000  1
  H  H14  1  0.16170000  0.30430000  0.06810000  1
  H  H15  1  0.20780000  0.49870000  0.52310000  1
  H  H16  1  0.21070000  0.02380000  0.77910000  1
  H  H17  1  0.23390000  0.85810000  0.36920000  1
  H  H18  1  0.26610000  0.35810000  0.86920000  1
  H  H19  1  0.28930000  0.52380000  0.27910000  1
  H  H20  1  0.29220000  0.99870000  0.02310000  1
  H  H21  1  0.33830000  0.80430000  0.56810000  1
  H  H22  1  0.38060000  0.55910000  0.04900000  1
  H  H23  1  0.45150000  0.02460000  0.24140000  1
  H  H24  1  0.54850000  0.97540000  0.75860000  1
  H  H25  1  0.61940000  0.44090000  0.95100000  1
  H  H26  1  0.66170000  0.19570000  0.43190000  1
  H  H27  1  0.70780000  0.00130000  0.97690000  1
  H  H28  1  0.71070000  0.47620000  0.72090000  1
  H  H29  1  0.73390000  0.64190000  0.13080000  1
  H  H30  1  0.76610000  0.14190000  0.63080000  1
  H  H31  1  0.78930000  0.97620000  0.22090000  1
  H  H32  1  0.79220000  0.50130000  0.47690000  1
  H  H33  1  0.83830000  0.69570000  0.93190000  1
  H  H34  1  0.88060000  0.94090000  0.45100000  1
  H  H35  1  0.95150000  0.47540000  0.25860000  1
  C  C36  1  0.02363000  0.48165000  0.79336000  1
  C  C37  1  0.10256000  0.25923000  0.02967000  1
  C  C38  1  0.14304000  0.05075000  0.82073000  1
  C  C39  1  0.16426000  0.82723000  0.33069000  1
  C  C40  1  0.21342000  0.07734000  0.55470000  1
  C  C41  1  0.22709000  0.43529000  0.56219000  1
  C  C42  1  0.27291000  0.93529000  0.06219000  1
  C  C43  1  0.28658000  0.57734000  0.05470000  1
  C  C44  1  0.33574000  0.32723000  0.83069000  1
  C  C45  1  0.35696000  0.55075000  0.32073000  1
  C  C46  1  0.39744000  0.75923000  0.52967000  1
  C  C47  1  0.47637000  0.98165000  0.29336000  1
  C  C48  1  0.52363000  0.01835000  0.70664000  1
  C  C49  1  0.60256000  0.24077000  0.47033000  1
  C  C50  1  0.64304000  0.44925000  0.67927000  1
  C  C51  1  0.66426000  0.67277000  0.16931000  1
  C  C52  1  0.71342000  0.42266000  0.94530000  1
  C  C53  1  0.72709000  0.06471000  0.93781000  1
  C  C54  1  0.77291000  0.56471000  0.43781000  1
  C  C55  1  0.78658000  0.92266000  0.44530000  1
  C  C56  1  0.83574000  0.17277000  0.66931000  1
  C  C57  1  0.85696000  0.94925000  0.17927000  1
  C  C58  1  0.89744000  0.74077000  0.97033000  1
  C  C59  1  0.97637000  0.51835000  0.20664000  1
  O  O60  1  0.00580000  0.53938000  0.86466000  1
  O  O61  1  0.01166000  0.36967000  0.78332000  1
  O  O62  1  0.02833000  0.31654000  0.97435000  1
  O  O63  1  0.05175000  0.80911000  0.36567000  1
  O  O64  1  0.08614000  0.15027000  0.80524000  1
  O  O65  1  0.10367000  0.15042000  0.03717000  1
  O  O66  1  0.11767000  0.98671000  0.88511000  1
  O  O67  1  0.13027000  0.39411000  0.60491000  1
  O  O68  1  0.14945000  0.90021000  0.06590000  1
  O  O69  1  0.19470000  0.80809000  0.24768000  1
  O  O70  1  0.20675000  0.52132000  0.00500000  1
  O  O71  1  0.24711000  0.15797000  0.61322000  1
  O  O72  1  0.25289000  0.65797000  0.11322000  1
  O  O73  1  0.29325000  0.02132000  0.50500000  1
  O  O74  1  0.30530000  0.30809000  0.74768000  1
  O  O75  1  0.35055000  0.40021000  0.56590000  1
  O  O76  1  0.36973000  0.89411000  0.10491000  1
  O  O77  1  0.38233000  0.48671000  0.38511000  1
  O  O78  1  0.39633000  0.65042000  0.53717000  1
  O  O79  1  0.41386000  0.65027000  0.30524000  1
  O  O80  1  0.44825000  0.30911000  0.86567000  1
  O  O81  1  0.47167000  0.81654000  0.47435000  1
  O  O82  1  0.48834000  0.86967000  0.28332000  1
  O  O83  1  0.49420000  0.03938000  0.36466000  1
  O  O84  1  0.50580000  0.96062000  0.63534000  1
  O  O85  1  0.51166000  0.13033000  0.71668000  1
  O  O86  1  0.52833000  0.18346000  0.52565000  1
  O  O87  1  0.55175000  0.69089000  0.13433000  1
  O  O88  1  0.58614000  0.34973000  0.69476000  1
  O  O89  1  0.60367000  0.34958000  0.46283000  1
  O  O90  1  0.61767000  0.51329000  0.61489000  1
  O  O91  1  0.63027000  0.10589000  0.89509000  1
  O  O92  1  0.64945000  0.59979000  0.43410000  1
  O  O93  1  0.69470000  0.69191000  0.25232000  1
  O  O94  1  0.70675000  0.97868000  0.49500000  1
  O  O95  1  0.74711000  0.34203000  0.88678000  1
  O  O96  1  0.75289000  0.84203000  0.38678000  1
  O  O97  1  0.79325000  0.47868000  0.99500000  1
  O  O98  1  0.80530000  0.19191000  0.75232000  1
  O  O99  1  0.85055000  0.09979000  0.93410000  1
  O  O100  1  0.86973000  0.60589000  0.39509000  1
  O  O101  1  0.88233000  0.01329000  0.11489000  1
  O  O102  1  0.89633000  0.84958000  0.96283000  1
  O  O103  1  0.91386000  0.84973000  0.19476000  1
  O  O104  1  0.94825000  0.19089000  0.63433000  1
  O  O105  1  0.97167000  0.68346000  0.02565000  1
  O  O106  1  0.98834000  0.63033000  0.21668000  1
  O  O107  1  0.99420000  0.46062000  0.13534000  1
