# generated using pymatgen
data_ZnH14(C5N2)2
_symmetry_space_group_name_H-M   'P 1'
_cell_length_a   22.97675025
_cell_length_b   22.97650000
_cell_length_c   22.97650000
_cell_angle_alpha   109.47100000
_cell_angle_beta   109.47144127
_cell_angle_gamma   109.47144127
_symmetry_Int_Tables_number   1
_chemical_formula_structural   ZnH14(C5N2)2
_chemical_formula_sum   'Zn24 H336 C240 N96'
_cell_volume   9337.55724595
_cell_formula_units_Z   24
loop_
 _symmetry_equiv_pos_site_id
 _symmetry_equiv_pos_as_xyz
  1  'x, y, z'
loop_
 _atom_site_type_symbol
 _atom_site_label
 _atom_site_symmetry_multiplicity
 _atom_site_fract_x
 _atom_site_fract_y
 _atom_site_fract_z
 _atom_site_occupancy
  Zn  Zn0  1  0.03632000  0.28632000  0.07264000  1
  Zn  Zn1  1  0.42736000  0.21368000  0.46368000  1
  Zn  Zn2  1  0.71368000  0.75000000  0.78632000  1
  Zn  Zn3  1  0.75000000  0.03632000  0.96368000  1
  Zn  Zn4  1  0.53632000  0.46368000  0.75000000  1
  Zn  Zn5  1  0.46368000  0.92736000  0.71368000  1
  Zn  Zn6  1  0.78632000  0.57264000  0.03632000  1
  Zn  Zn7  1  0.92736000  0.46368000  0.21368000  1
  Zn  Zn8  1  0.28632000  0.03632000  0.57264000  1
  Zn  Zn9  1  0.03632000  0.75000000  0.46368000  1
  Zn  Zn10  1  0.25000000  0.28632000  0.71368000  1
  Zn  Zn11  1  0.78632000  0.21368000  0.25000000  1
  Zn  Zn12  1  0.21368000  0.78632000  0.75000000  1
  Zn  Zn13  1  0.75000000  0.71368000  0.28632000  1
  Zn  Zn14  1  0.96368000  0.25000000  0.53632000  1
  Zn  Zn15  1  0.71368000  0.96368000  0.42736000  1
  Zn  Zn16  1  0.07264000  0.53632000  0.78632000  1
  Zn  Zn17  1  0.21368000  0.42736000  0.96368000  1
  Zn  Zn18  1  0.53632000  0.07264000  0.28632000  1
  Zn  Zn19  1  0.46368000  0.53632000  0.25000000  1
  Zn  Zn20  1  0.25000000  0.96368000  0.03632000  1
  Zn  Zn21  1  0.28632000  0.25000000  0.21368000  1
  Zn  Zn22  1  0.57264000  0.78632000  0.53632000  1
  Zn  Zn23  1  0.96368000  0.71368000  0.92736000  1
  H  H24  1  0.75580000  0.95780000  0.76380000  1
  H  H25  1  0.73620000  0.54220000  0.74420000  1
  H  H26  1  0.90500000  0.20340000  0.91420000  1
  H  H27  1  0.58580000  0.29660000  0.59500000  1
  H  H28  1  0.60210000  0.94490000  0.62360000  1
  H  H29  1  0.87640000  0.55510000  0.89790000  1
  H  H30  1  0.79650000  0.90170000  0.81960000  1
  H  H31  1  0.68040000  0.59830000  0.70350000  1
  H  H32  1  0.66210000  0.90780000  0.69290000  1
  H  H33  1  0.80710000  0.59220000  0.83790000  1
  H  H34  1  0.69400000  0.99200000  0.73620000  1
  H  H35  1  0.76380000  0.50800000  0.80600000  1
  H  H36  1  0.82130000  0.97850000  0.87640000  1
  H  H37  1  0.62360000  0.52150000  0.67870000  1
  H  H38  1  0.68950000  0.89050000  0.74900000  1
  H  H39  1  0.75100000  0.60950000  0.81050000  1
  H  H40  1  0.78960000  0.09970000  0.86890000  1
  H  H41  1  0.63110000  0.40030000  0.71040000  1
  H  H42  1  0.52310000  0.70350000  0.60520000  1
  H  H43  1  0.89480000  0.79650000  0.97690000  1
  H  H44  1  0.20340000  0.29840000  0.28920000  1
  H  H45  1  0.21080000  0.20160000  0.29660000  1
  H  H46  1  0.71490000  0.96920000  0.80710000  1
  H  H47  1  0.69290000  0.53080000  0.78510000  1
  H  H48  1  0.41420000  0.71080000  0.50920000  1
  H  H49  1  0.99080000  0.78920000  0.08580000  1
  H  H50  1  0.58210000  0.97690000  0.68040000  1
  H  H51  1  0.81960000  0.52310000  0.91790000  1
  H  H52  1  0.13110000  0.42070000  0.23080000  1
  H  H53  1  0.26920000  0.07930000  0.36890000  1
  H  H54  1  0.55510000  0.67870000  0.65720000  1
  H  H55  1  0.84280000  0.82130000  0.94490000  1
  H  H56  1  0.91790000  0.31960000  0.02310000  1
  H  H57  1  0.47690000  0.18040000  0.58210000  1
  H  H58  1  0.64150000  0.94050000  0.75100000  1
  H  H59  1  0.74900000  0.55950000  0.85850000  1
  H  H60  1  0.97850000  0.15720000  0.10210000  1
  H  H61  1  0.39790000  0.34280000  0.52150000  1
  H  H62  1  0.09970000  0.31010000  0.23080000  1
  H  H63  1  0.26920000  0.18990000  0.40030000  1
  H  H64  1  0.55950000  0.81050000  0.70100000  1
  H  H65  1  0.79900000  0.68950000  0.94050000  1
  H  H66  1  0.89790000  0.37640000  0.05510000  1
  H  H67  1  0.44490000  0.12360000  0.60210000  1
  H  H68  1  0.59220000  0.78510000  0.75430000  1
  H  H69  1  0.74570000  0.71490000  0.90780000  1
  H  H70  1  0.37640000  0.89790000  0.55510000  1
  H  H71  1  0.94490000  0.60210000  0.12360000  1
  H  H72  1  0.90170000  0.10520000  0.08210000  1
  H  H73  1  0.41790000  0.39480000  0.59830000  1
  H  H74  1  0.60950000  0.85850000  0.79900000  1
  H  H75  1  0.70100000  0.64150000  0.89050000  1
  H  H76  1  0.71040000  0.13110000  0.90030000  1
  H  H77  1  0.59970000  0.36890000  0.78960000  1
  H  H78  1  0.96920000  0.25430000  0.16210000  1
  H  H79  1  0.33790000  0.24570000  0.53080000  1
  H  H80  1  0.50800000  0.74420000  0.70200000  1
  H  H81  1  0.79800000  0.75580000  0.99200000  1
  H  H82  1  0.85850000  0.24900000  0.05950000  1
  H  H83  1  0.44050000  0.25100000  0.64150000  1
  H  H84  1  0.59500000  0.08580000  0.79660000  1
  H  H85  1  0.70340000  0.41420000  0.90500000  1
  H  H86  1  0.80600000  0.26380000  0.00800000  1
  H  H87  1  0.49200000  0.23620000  0.69400000  1
  H  H88  1  0.08580000  0.49080000  0.28920000  1
  H  H89  1  0.21080000  0.00920000  0.41420000  1
  H  H90  1  0.31960000  0.91790000  0.52310000  1
  H  H91  1  0.97690000  0.58210000  0.18040000  1
  H  H92  1  0.36890000  0.76920000  0.57930000  1
  H  H93  1  0.92070000  0.73080000  0.13110000  1
  H  H94  1  0.08580000  0.59500000  0.29660000  1
  H  H95  1  0.20340000  0.90500000  0.41420000  1
  H  H96  1  0.53080000  0.83790000  0.74570000  1
  H  H97  1  0.75430000  0.66210000  0.96920000  1
  H  H98  1  0.68990000  0.78960000  0.92070000  1
  H  H99  1  0.57930000  0.71040000  0.81010000  1
  H  H100  1  0.95780000  0.20200000  0.19400000  1
  H  H101  1  0.30600000  0.29800000  0.54220000  1
  H  H102  1  0.26380000  0.80600000  0.50800000  1
  H  H103  1  0.99200000  0.69400000  0.23620000  1
  H  H104  1  0.78510000  0.19290000  0.03080000  1
  H  H105  1  0.46920000  0.30710000  0.71490000  1
  H  H106  1  0.94050000  0.29900000  0.18950000  1
  H  H107  1  0.31050000  0.20100000  0.55950000  1
  H  H108  1  0.89050000  0.20100000  0.14150000  1
  H  H109  1  0.35850000  0.29900000  0.60950000  1
  H  H110  1  0.83790000  0.30710000  0.09220000  1
  H  H111  1  0.40780000  0.19290000  0.66210000  1
  H  H112  1  0.54220000  0.80600000  0.79800000  1
  H  H113  1  0.70200000  0.69400000  0.95780000  1
  H  H114  1  0.99200000  0.29800000  0.25580000  1
  H  H115  1  0.24420000  0.20200000  0.50800000  1
  H  H116  1  0.13110000  0.71040000  0.40030000  1
  H  H117  1  0.09970000  0.78960000  0.36890000  1
  H  H118  1  0.30710000  0.83790000  0.59220000  1
  H  H119  1  0.90780000  0.66210000  0.19290000  1
  H  H120  1  0.50920000  0.59500000  0.79840000  1
  H  H121  1  0.70160000  0.90500000  0.99080000  1
  H  H122  1  0.40030000  0.76920000  0.68990000  1
  H  H123  1  0.81010000  0.73080000  0.09970000  1
  H  H124  1  0.59830000  0.91790000  0.89480000  1
  H  H125  1  0.60520000  0.58210000  0.90170000  1
  H  H126  1  0.40500000  0.49080000  0.70160000  1
  H  H127  1  0.79840000  0.00920000  0.09500000  1
  H  H128  1  0.74420000  0.23620000  0.04220000  1
  H  H129  1  0.45780000  0.26380000  0.75580000  1
  H  H130  1  0.49080000  0.08580000  0.78920000  1
  H  H131  1  0.71080000  0.41420000  0.00920000  1
  H  H132  1  0.81050000  0.25100000  0.10950000  1
  H  H133  1  0.39050000  0.24900000  0.68950000  1
  H  H134  1  0.23620000  0.74420000  0.54220000  1
  H  H135  1  0.95780000  0.75580000  0.26380000  1
  H  H136  1  0.90780000  0.24570000  0.21490000  1
  H  H137  1  0.28510000  0.25430000  0.59220000  1
  H  H138  1  0.76920000  0.36890000  0.07930000  1
  H  H139  1  0.42070000  0.13110000  0.73080000  1
  H  H140  1  0.24900000  0.85850000  0.55950000  1
  H  H141  1  0.94050000  0.64150000  0.25100000  1
  H  H142  1  0.97690000  0.39480000  0.29650000  1
  H  H143  1  0.20350000  0.10520000  0.52310000  1
  H  H144  1  0.52150000  0.89790000  0.84280000  1
  H  H145  1  0.65720000  0.60210000  0.97850000  1
  H  H146  1  0.19290000  0.78510000  0.53080000  1
  H  H147  1  0.96920000  0.71490000  0.30710000  1
  H  H148  1  0.67870000  0.12360000  0.02150000  1
  H  H149  1  0.47850000  0.37640000  0.82130000  1
  H  H150  1  0.25100000  0.81050000  0.60950000  1
  H  H151  1  0.89050000  0.68950000  0.24900000  1
  H  H152  1  0.21040000  0.31010000  0.57930000  1
  H  H153  1  0.92070000  0.18990000  0.28960000  1
  H  H154  1  0.94490000  0.34280000  0.32130000  1
  H  H155  1  0.17870000  0.15720000  0.55510000  1
  H  H156  1  0.29900000  0.94050000  0.68950000  1
  H  H157  1  0.81050000  0.55950000  0.20100000  1
  H  H158  1  0.70350000  0.18040000  0.09830000  1
  H  H159  1  0.40170000  0.31960000  0.79650000  1
  H  H160  1  0.12360000  0.67870000  0.52150000  1
  H  H161  1  0.97850000  0.82130000  0.37640000  1
  H  H162  1  0.28960000  0.42070000  0.68990000  1
  H  H163  1  0.81010000  0.07930000  0.21040000  1
  H  H164  1  0.39480000  0.97690000  0.79650000  1
  H  H165  1  0.70350000  0.52310000  0.10520000  1
  H  H166  1  0.29660000  0.71080000  0.70160000  1
  H  H167  1  0.79840000  0.78920000  0.20340000  1
  H  H168  1  0.83790000  0.53080000  0.24570000  1
  H  H169  1  0.25430000  0.96920000  0.66210000  1
  H  H170  1  0.09500000  0.29840000  0.50920000  1
  H  H171  1  0.99080000  0.20160000  0.40500000  1
  H  H172  1  0.18040000  0.70350000  0.59830000  1
  H  H173  1  0.90170000  0.79650000  0.31960000  1
  H  H174  1  0.76920000  0.40030000  0.18990000  1
  H  H175  1  0.31010000  0.09970000  0.73080000  1
  H  H176  1  0.20100000  0.89050000  0.64150000  1
  H  H177  1  0.85850000  0.60950000  0.29900000  1
  H  H178  1  0.89790000  0.52150000  0.34280000  1
  H  H179  1  0.15720000  0.97850000  0.60210000  1
  H  H180  1  0.29800000  0.99200000  0.75580000  1
  H  H181  1  0.74420000  0.50800000  0.20200000  1
  H  H182  1  0.24570000  0.90780000  0.71490000  1
  H  H183  1  0.78510000  0.59220000  0.25430000  1
  H  H184  1  0.91790000  0.59830000  0.39480000  1
  H  H185  1  0.10520000  0.90170000  0.58210000  1
  H  H186  1  0.34280000  0.94490000  0.82130000  1
  H  H187  1  0.67870000  0.55510000  0.15720000  1
  H  H188  1  0.71080000  0.29660000  0.20160000  1
  H  H189  1  0.29840000  0.20340000  0.78920000  1
  H  H190  1  0.80600000  0.54220000  0.29800000  1
  H  H191  1  0.20200000  0.95780000  0.69400000  1
  H  H192  1  0.79800000  0.04220000  0.30600000  1
  H  H193  1  0.19400000  0.45780000  0.70200000  1
  H  H194  1  0.70160000  0.79660000  0.21080000  1
  H  H195  1  0.28920000  0.70340000  0.79840000  1
  H  H196  1  0.32130000  0.44490000  0.84280000  1
  H  H197  1  0.65720000  0.05510000  0.17870000  1
  H  H198  1  0.89480000  0.09830000  0.41790000  1
  H  H199  1  0.08210000  0.40170000  0.60520000  1
  H  H200  1  0.21490000  0.40780000  0.74570000  1
  H  H201  1  0.75430000  0.09220000  0.28510000  1
  H  H202  1  0.25580000  0.49200000  0.79800000  1
  H  H203  1  0.70200000  0.00800000  0.24420000  1
  H  H204  1  0.84280000  0.02150000  0.39790000  1
  H  H205  1  0.10210000  0.47850000  0.65720000  1
  H  H206  1  0.14150000  0.39050000  0.70100000  1
  H  H207  1  0.79900000  0.10950000  0.35850000  1
  H  H208  1  0.68990000  0.90030000  0.26920000  1
  H  H209  1  0.23080000  0.59970000  0.81010000  1
  H  H210  1  0.09830000  0.20350000  0.68040000  1
  H  H211  1  0.81960000  0.29650000  0.40170000  1
  H  H212  1  0.00920000  0.79840000  0.59500000  1
  H  H213  1  0.90500000  0.70160000  0.49080000  1
  H  H214  1  0.74570000  0.03080000  0.33790000  1
  H  H215  1  0.16210000  0.46920000  0.75430000  1
  H  H216  1  0.20160000  0.21080000  0.79660000  1
  H  H217  1  0.70340000  0.28920000  0.29840000  1
  H  H218  1  0.29650000  0.47690000  0.89480000  1
  H  H219  1  0.60520000  0.02310000  0.20350000  1
  H  H220  1  0.18990000  0.92070000  0.78960000  1
  H  H221  1  0.71040000  0.57930000  0.31010000  1
  H  H222  1  0.02150000  0.17870000  0.62360000  1
  H  H223  1  0.87640000  0.32130000  0.47850000  1
  H  H224  1  0.59830000  0.68040000  0.20350000  1
  H  H225  1  0.29650000  0.81960000  0.90170000  1
  H  H226  1  0.18950000  0.44050000  0.79900000  1
  H  H227  1  0.70100000  0.05950000  0.31050000  1
  H  H228  1  0.82130000  0.84280000  0.44490000  1
  H  H229  1  0.05510000  0.65720000  0.67870000  1
  H  H230  1  0.07930000  0.81010000  0.71040000  1
  H  H231  1  0.78960000  0.68990000  0.42070000  1
  H  H232  1  0.10950000  0.31050000  0.75100000  1
  H  H233  1  0.74900000  0.18950000  0.39050000  1
  H  H234  1  0.52150000  0.62360000  0.17870000  1
  H  H235  1  0.32130000  0.87640000  0.97850000  1
  H  H236  1  0.03080000  0.28510000  0.69290000  1
  H  H237  1  0.80710000  0.21490000  0.46920000  1
  H  H238  1  0.34280000  0.39790000  0.02150000  1
  H  H239  1  0.47850000  0.10210000  0.15720000  1
  H  H240  1  0.79650000  0.89480000  0.47690000  1
  H  H241  1  0.02310000  0.60520000  0.70350000  1
  H  H242  1  0.05950000  0.35850000  0.74900000  1
  H  H243  1  0.75100000  0.14150000  0.44050000  1
  H  H244  1  0.57930000  0.86890000  0.26920000  1
  H  H245  1  0.23080000  0.63110000  0.92070000  1
  H  H246  1  0.71490000  0.74570000  0.40780000  1
  H  H247  1  0.09220000  0.75430000  0.78510000  1
  H  H248  1  0.04220000  0.24420000  0.73620000  1
  H  H249  1  0.76380000  0.25580000  0.45780000  1
  H  H250  1  0.60950000  0.75100000  0.31050000  1
  H  H251  1  0.18950000  0.74900000  0.89050000  1
  H  H252  1  0.28920000  0.58580000  0.99080000  1
  H  H253  1  0.50920000  0.91420000  0.21080000  1
  H  H254  1  0.54220000  0.73620000  0.24420000  1
  H  H255  1  0.25580000  0.76380000  0.95780000  1
  H  H256  1  0.20160000  0.99080000  0.90500000  1
  H  H257  1  0.59500000  0.50920000  0.29840000  1
  H  H258  1  0.39480000  0.41790000  0.09830000  1
  H  H259  1  0.40170000  0.08210000  0.10520000  1
  H  H260  1  0.18990000  0.26920000  0.90030000  1
  H  H261  1  0.59970000  0.23080000  0.31010000  1
  H  H262  1  0.29840000  0.09500000  0.00920000  1
  H  H263  1  0.49080000  0.40500000  0.20160000  1
  H  H264  1  0.09220000  0.33790000  0.80710000  1
  H  H265  1  0.69290000  0.16210000  0.40780000  1
  H  H266  1  0.90030000  0.21040000  0.63110000  1
  H  H267  1  0.86890000  0.28960000  0.59970000  1
  H  H268  1  0.75580000  0.79800000  0.49200000  1
  H  H269  1  0.00800000  0.70200000  0.74420000  1
  H  H270  1  0.29800000  0.30600000  0.04220000  1
  H  H271  1  0.45780000  0.19400000  0.20200000  1
  H  H272  1  0.59220000  0.80710000  0.33790000  1
  H  H273  1  0.16210000  0.69290000  0.90780000  1
  H  H274  1  0.64150000  0.70100000  0.39050000  1
  H  H275  1  0.10950000  0.79900000  0.85850000  1
  H  H276  1  0.68950000  0.79900000  0.44050000  1
  H  H277  1  0.05950000  0.70100000  0.81050000  1
  H  H278  1  0.53080000  0.69290000  0.28510000  1
  H  H279  1  0.21490000  0.80710000  0.96920000  1
  H  H280  1  0.00800000  0.30600000  0.76380000  1
  H  H281  1  0.73620000  0.19400000  0.49200000  1
  H  H282  1  0.69400000  0.70200000  0.45780000  1
  H  H283  1  0.04220000  0.79800000  0.80600000  1
  H  H284  1  0.42070000  0.28960000  0.18990000  1
  H  H285  1  0.31010000  0.21040000  0.07930000  1
  H  H286  1  0.24570000  0.33790000  0.03080000  1
  H  H287  1  0.46920000  0.16210000  0.25430000  1
  H  H288  1  0.79660000  0.09500000  0.58580000  1
  H  H289  1  0.91420000  0.40500000  0.70340000  1
  H  H290  1  0.07930000  0.26920000  0.86890000  1
  H  H291  1  0.63110000  0.23080000  0.42070000  1
  H  H292  1  0.02310000  0.41790000  0.81960000  1
  H  H293  1  0.68040000  0.08210000  0.47690000  1
  H  H294  1  0.78920000  0.99080000  0.58580000  1
  H  H295  1  0.91420000  0.50920000  0.71080000  1
  H  H296  1  0.50800000  0.76380000  0.30600000  1
  H  H297  1  0.19400000  0.73620000  0.99200000  1
  H  H298  1  0.29660000  0.58580000  0.09500000  1
  H  H299  1  0.40500000  0.91420000  0.20340000  1
  H  H300  1  0.55950000  0.74900000  0.35850000  1
  H  H301  1  0.14150000  0.75100000  0.94050000  1
  H  H302  1  0.20200000  0.24420000  0.00800000  1
  H  H303  1  0.49200000  0.25580000  0.29800000  1
  H  H304  1  0.66210000  0.75430000  0.46920000  1
  H  H305  1  0.03080000  0.74570000  0.83790000  1
  H  H306  1  0.40030000  0.63110000  0.21040000  1
  H  H307  1  0.28960000  0.86890000  0.09970000  1
  H  H308  1  0.29900000  0.35850000  0.10950000  1
  H  H309  1  0.39050000  0.14150000  0.20100000  1
  H  H310  1  0.58210000  0.60520000  0.40170000  1
  H  H311  1  0.09830000  0.89480000  0.91790000  1
  H  H312  1  0.05510000  0.39790000  0.87640000  1
  H  H313  1  0.62360000  0.10210000  0.44490000  1
  H  H314  1  0.25430000  0.28510000  0.09220000  1
  H  H315  1  0.40780000  0.21490000  0.24570000  1
  H  H316  1  0.55510000  0.87640000  0.39790000  1
  H  H317  1  0.10210000  0.62360000  0.94490000  1
  H  H318  1  0.20100000  0.31050000  0.05950000  1
  H  H319  1  0.44050000  0.18950000  0.29900000  1
  H  H320  1  0.73080000  0.81010000  0.59970000  1
  H  H321  1  0.90030000  0.68990000  0.76920000  1
  H  H322  1  0.60210000  0.65720000  0.47850000  1
  H  H323  1  0.02150000  0.84280000  0.89790000  1
  H  H324  1  0.25100000  0.44050000  0.14150000  1
  H  H325  1  0.35850000  0.05950000  0.24900000  1
  H  H326  1  0.52310000  0.81960000  0.41790000  1
  H  H327  1  0.08210000  0.68040000  0.97690000  1
  H  H328  1  0.15720000  0.17870000  0.05510000  1
  H  H329  1  0.44490000  0.32130000  0.34280000  1
  H  H330  1  0.73080000  0.92070000  0.63110000  1
  H  H331  1  0.86890000  0.57930000  0.76920000  1
  H  H332  1  0.18040000  0.47690000  0.08210000  1
  H  H333  1  0.41790000  0.02310000  0.31960000  1
  H  H334  1  0.00920000  0.21080000  0.91420000  1
  H  H335  1  0.58580000  0.28920000  0.49080000  1
  H  H336  1  0.30710000  0.46920000  0.21490000  1
  H  H337  1  0.28510000  0.03080000  0.19290000  1
  H  H338  1  0.78920000  0.79840000  0.70340000  1
  H  H339  1  0.79660000  0.70160000  0.71080000  1
  H  H340  1  0.10520000  0.20350000  0.02310000  1
  H  H341  1  0.47690000  0.29650000  0.39480000  1
  H  H342  1  0.36890000  0.59970000  0.28960000  1
  H  H343  1  0.21040000  0.90030000  0.13110000  1
  H  H344  1  0.24900000  0.39050000  0.18950000  1
  H  H345  1  0.31050000  0.10950000  0.25100000  1
  H  H346  1  0.37640000  0.47850000  0.32130000  1
  H  H347  1  0.17870000  0.02150000  0.12360000  1
  H  H348  1  0.23620000  0.49200000  0.19400000  1
  H  H349  1  0.30600000  0.00800000  0.26380000  1
  H  H350  1  0.19290000  0.40780000  0.16210000  1
  H  H351  1  0.33790000  0.09220000  0.30710000  1
  H  H352  1  0.31960000  0.40170000  0.29650000  1
  H  H353  1  0.20350000  0.09830000  0.18040000  1
  H  H354  1  0.12360000  0.44490000  0.10210000  1
  H  H355  1  0.39790000  0.05510000  0.37640000  1
  H  H356  1  0.41420000  0.70340000  0.40500000  1
  H  H357  1  0.09500000  0.79660000  0.08580000  1
  H  H358  1  0.26380000  0.45780000  0.25580000  1
  H  H359  1  0.24420000  0.04220000  0.23620000  1
  C  C360  1  0.63056000  0.75119000  0.65283000  1
  C  C361  1  0.84717000  0.74881000  0.86944000  1
  C  C362  1  0.89391000  0.18040000  0.93967000  1
  C  C363  1  0.56033000  0.31960000  0.60609000  1
  C  C364  1  0.73090000  0.93790000  0.78560000  1
  C  C365  1  0.71440000  0.56210000  0.76910000  1
  C  C366  1  0.18040000  0.28649000  0.24073000  1
  C  C367  1  0.25927000  0.21351000  0.31960000  1
  C  C368  1  0.77992000  0.93161000  0.84141000  1
  C  C369  1  0.65859000  0.56839000  0.72008000  1
  C  C370  1  0.65230000  0.94530000  0.71440000  1
  C  C371  1  0.78560000  0.55470000  0.84770000  1
  C  C372  1  0.59020000  0.93851000  0.65859000  1
  C  C373  1  0.84141000  0.56149000  0.90980000  1
  C  C374  1  0.83031000  0.12355000  0.91488000  1
  C  C375  1  0.58512000  0.37645000  0.66969000  1
  C  C376  1  0.12355000  0.29324000  0.20867000  1
  C  C377  1  0.29133000  0.20676000  0.37645000  1
  C  C378  1  0.56149000  0.72008000  0.65169000  1
  C  C379  1  0.84831000  0.77992000  0.93851000  1
  C  C380  1  0.52227000  0.86944000  0.62063000  1
  C  C381  1  0.87937000  0.63056000  0.97773000  1
  C  C382  1  0.43967000  0.75927000  0.54576000  1
  C  C383  1  0.95424000  0.74073000  0.06033000  1
  C  C384  1  0.90164000  0.15283000  0.02227000  1
  C  C385  1  0.47773000  0.34717000  0.59836000  1
  C  C386  1  0.08512000  0.41543000  0.20867000  1
  C  C387  1  0.29133000  0.08457000  0.41488000  1
  C  C388  1  0.74881000  0.90164000  0.87937000  1
  C  C389  1  0.62063000  0.59836000  0.75119000  1
  C  C390  1  0.90980000  0.34141000  0.06149000  1
  C  C391  1  0.43851000  0.15859000  0.59020000  1
  C  C392  1  0.55470000  0.76910000  0.70700000  1
  C  C393  1  0.79300000  0.73090000  0.94530000  1
  C  C394  1  0.97773000  0.37937000  0.13056000  1
  C  C395  1  0.36944000  0.12063000  0.52227000  1
  C  C396  1  0.93161000  0.15169000  0.09020000  1
  C  C397  1  0.40980000  0.34831000  0.56839000  1
  C  C398  1  0.41488000  0.79133000  0.58457000  1
  C  C399  1  0.91543000  0.70867000  0.08512000  1
  C  C400  1  0.06033000  0.45424000  0.24073000  1
  C  C401  1  0.25927000  0.04576000  0.43967000  1
  C  C402  1  0.66969000  0.08512000  0.87645000  1
  C  C403  1  0.62355000  0.41488000  0.83031000  1
  C  C404  1  0.84770000  0.28560000  0.05470000  1
  C  C405  1  0.44530000  0.21440000  0.65230000  1
  C  C406  1  0.58457000  0.66969000  0.79324000  1
  C  C407  1  0.70676000  0.83031000  0.91543000  1
  C  C408  1  0.60609000  0.06033000  0.81960000  1
  C  C409  1  0.68040000  0.43967000  0.89391000  1
  C  C410  1  0.93790000  0.20700000  0.15230000  1
  C  C411  1  0.34770000  0.29300000  0.56210000  1
  C  C412  1  0.34141000  0.90980000  0.56149000  1
  C  C413  1  0.93851000  0.59020000  0.15859000  1
  C  C414  1  0.56210000  0.84770000  0.79300000  1
  C  C415  1  0.70700000  0.65230000  0.93790000  1
  C  C416  1  0.54576000  0.60609000  0.78649000  1
  C  C417  1  0.71351000  0.89391000  0.95424000  1
  C  C418  1  0.59836000  0.97773000  0.84717000  1
  C  C419  1  0.65283000  0.52227000  0.90164000  1
  C  C420  1  0.37937000  0.97773000  0.63056000  1
  C  C421  1  0.86944000  0.52227000  0.12063000  1
  C  C422  1  0.06033000  0.60609000  0.31960000  1
  C  C423  1  0.18040000  0.89391000  0.43967000  1
  C  C424  1  0.28560000  0.84770000  0.55470000  1
  C  C425  1  0.94530000  0.65230000  0.21440000  1
  C  C426  1  0.56839000  0.90980000  0.84831000  1
  C  C427  1  0.65169000  0.59020000  0.93161000  1
  C  C428  1  0.94530000  0.29300000  0.23090000  1
  C  C429  1  0.26910000  0.20700000  0.55470000  1
  C  C430  1  0.45424000  0.06033000  0.74073000  1
  C  C431  1  0.75927000  0.43967000  0.04576000  1
  C  C432  1  0.08512000  0.66969000  0.37645000  1
  C  C433  1  0.12355000  0.83031000  0.41488000  1
  C  C434  1  0.76910000  0.21440000  0.06210000  1
  C  C435  1  0.43790000  0.28560000  0.73090000  1
  C  C436  1  0.79133000  0.41488000  0.08457000  1
  C  C437  1  0.41543000  0.08512000  0.70867000  1
  C  C438  1  0.39391000  0.45424000  0.71351000  1
  C  C439  1  0.78649000  0.04576000  0.10609000  1
  C  C440  1  0.37645000  0.79133000  0.70676000  1
  C  C441  1  0.79324000  0.70867000  0.12355000  1
  C  C442  1  0.93851000  0.34831000  0.27992000  1
  C  C443  1  0.22008000  0.15169000  0.56149000  1
  C  C444  1  0.75119000  0.12063000  0.09836000  1
  C  C445  1  0.40164000  0.37937000  0.74881000  1
  C  C446  1  0.21440000  0.76910000  0.56210000  1
  C  C447  1  0.93790000  0.73090000  0.28560000  1
  C  C448  1  0.72008000  0.15859000  0.06839000  1
  C  C449  1  0.43161000  0.34141000  0.77992000  1
  C  C450  1  0.97773000  0.59836000  0.34717000  1
  C  C451  1  0.15283000  0.90164000  0.52227000  1
  C  C452  1  0.33031000  0.41543000  0.70676000  1
  C  C453  1  0.79324000  0.08457000  0.16969000  1
  C  C454  1  0.86944000  0.34717000  0.24881000  1
  C  C455  1  0.25119000  0.15283000  0.63056000  1
  C  C456  1  0.31960000  0.75927000  0.71351000  1
  C  C457  1  0.78649000  0.74073000  0.18040000  1
  C  C458  1  0.34717000  0.86944000  0.74881000  1
  C  C459  1  0.75119000  0.63056000  0.15283000  1
  C  C460  1  0.15859000  0.72008000  0.56839000  1
  C  C461  1  0.93161000  0.77992000  0.34141000  1
  C  C462  1  0.16969000  0.29324000  0.58457000  1
  C  C463  1  0.91543000  0.20676000  0.33031000  1
  C  C464  1  0.79133000  0.37645000  0.20676000  1
  C  C465  1  0.29324000  0.12355000  0.70867000  1
  C  C466  1  0.34831000  0.93851000  0.77992000  1
  C  C467  1  0.72008000  0.56149000  0.15169000  1
  C  C468  1  0.29300000  0.94530000  0.73090000  1
  C  C469  1  0.76910000  0.55470000  0.20700000  1
  C  C470  1  0.90980000  0.56839000  0.34831000  1
  C  C471  1  0.15169000  0.93161000  0.59020000  1
  C  C472  1  0.10609000  0.28649000  0.54576000  1
  C  C473  1  0.95424000  0.21351000  0.39391000  1
  C  C474  1  0.84770000  0.56210000  0.29300000  1
  C  C475  1  0.20700000  0.93790000  0.65230000  1
  C  C476  1  0.75927000  0.31960000  0.21351000  1
  C  C477  1  0.28649000  0.18040000  0.74073000  1
  C  C478  1  0.12063000  0.75119000  0.59836000  1
  C  C479  1  0.90164000  0.74881000  0.37937000  1
  C  C480  1  0.09836000  0.25119000  0.62063000  1
  C  C481  1  0.87937000  0.24881000  0.40164000  1
  C  C482  1  0.71351000  0.81960000  0.25927000  1
  C  C483  1  0.24073000  0.68040000  0.78649000  1
  C  C484  1  0.79300000  0.06210000  0.34770000  1
  C  C485  1  0.15230000  0.43790000  0.70700000  1
  C  C486  1  0.04576000  0.78649000  0.60609000  1
  C  C487  1  0.89391000  0.71351000  0.45424000  1
  C  C488  1  0.84831000  0.06839000  0.40980000  1
  C  C489  1  0.09020000  0.43161000  0.65169000  1
  C  C490  1  0.23090000  0.44530000  0.79300000  1
  C  C491  1  0.70700000  0.05470000  0.26910000  1
  C  C492  1  0.27992000  0.43851000  0.84831000  1
  C  C493  1  0.65169000  0.06149000  0.22008000  1
  C  C494  1  0.70676000  0.87645000  0.29133000  1
  C  C495  1  0.20867000  0.62355000  0.79324000  1
  C  C496  1  0.08457000  0.79324000  0.66969000  1
  C  C497  1  0.83031000  0.70676000  0.41543000  1
  C  C498  1  0.06839000  0.22008000  0.65859000  1
  C  C499  1  0.84141000  0.27992000  0.43161000  1
  C  C500  1  0.24881000  0.36944000  0.84717000  1
  C  C501  1  0.65283000  0.13056000  0.25119000  1
  C  C502  1  0.21351000  0.25927000  0.81960000  1
  C  C503  1  0.68040000  0.24073000  0.28649000  1
  C  C504  1  0.74881000  0.84717000  0.36944000  1
  C  C505  1  0.13056000  0.65283000  0.75119000  1
  C  C506  1  0.20676000  0.91543000  0.83031000  1
  C  C507  1  0.66969000  0.58457000  0.29324000  1
  C  C508  1  0.84717000  0.09836000  0.47773000  1
  C  C509  1  0.02227000  0.40164000  0.65283000  1
  C  C510  1  0.56839000  0.65859000  0.22008000  1
  C  C511  1  0.27992000  0.84141000  0.93161000  1
  C  C512  1  0.06210000  0.26910000  0.71440000  1
  C  C513  1  0.78560000  0.23090000  0.43790000  1
  C  C514  1  0.59836000  0.62063000  0.25119000  1
  C  C515  1  0.24881000  0.87937000  0.90164000  1
  C  C516  1  0.77992000  0.84831000  0.43851000  1
  C  C517  1  0.06149000  0.65169000  0.72008000  1
  C  C518  1  0.20676000  0.29133000  0.87645000  1
  C  C519  1  0.62355000  0.20867000  0.29324000  1
  C  C520  1  0.21351000  0.95424000  0.89391000  1
  C  C521  1  0.60609000  0.54576000  0.28649000  1
  C  C522  1  0.58457000  0.91488000  0.29133000  1
  C  C523  1  0.20867000  0.58512000  0.91543000  1
  C  C524  1  0.56210000  0.71440000  0.26910000  1
  C  C525  1  0.23090000  0.78560000  0.93790000  1
  C  C526  1  0.87645000  0.16969000  0.58512000  1
  C  C527  1  0.91488000  0.33031000  0.62355000  1
  C  C528  1  0.24073000  0.56033000  0.95424000  1
  C  C529  1  0.54576000  0.93967000  0.25927000  1
  C  C530  1  0.73090000  0.79300000  0.44530000  1
  C  C531  1  0.05470000  0.70700000  0.76910000  1
  C  C532  1  0.34831000  0.40980000  0.06839000  1
  C  C533  1  0.43161000  0.09020000  0.15169000  1
  C  C534  1  0.05470000  0.34770000  0.78560000  1
  C  C535  1  0.71440000  0.15230000  0.44530000  1
  C  C536  1  0.81960000  0.10609000  0.56033000  1
  C  C537  1  0.93967000  0.39391000  0.68040000  1
  C  C538  1  0.13056000  0.47773000  0.87937000  1
  C  C539  1  0.62063000  0.02227000  0.36944000  1
  C  C540  1  0.34717000  0.47773000  0.09836000  1
  C  C541  1  0.40164000  0.02227000  0.15283000  1
  C  C542  1  0.28649000  0.10609000  0.04576000  1
  C  C543  1  0.45424000  0.39391000  0.21351000  1
  C  C544  1  0.29300000  0.34770000  0.06210000  1
  C  C545  1  0.43790000  0.15230000  0.20700000  1
  C  C546  1  0.06149000  0.40980000  0.84141000  1
  C  C547  1  0.65859000  0.09020000  0.43851000  1
  C  C548  1  0.65230000  0.70700000  0.43790000  1
  C  C549  1  0.06210000  0.79300000  0.84770000  1
  C  C550  1  0.31960000  0.56033000  0.10609000  1
  C  C551  1  0.39391000  0.93967000  0.18040000  1
  C  C552  1  0.29324000  0.16969000  0.08457000  1
  C  C553  1  0.41543000  0.33031000  0.20676000  1
  C  C554  1  0.55470000  0.78560000  0.34770000  1
  C  C555  1  0.15230000  0.71440000  0.94530000  1
  C  C556  1  0.37645000  0.58512000  0.16969000  1
  C  C557  1  0.33031000  0.91488000  0.12355000  1
  C  C558  1  0.74073000  0.95424000  0.56033000  1
  C  C559  1  0.93967000  0.54576000  0.75927000  1
  C  C560  1  0.08457000  0.29133000  0.91488000  1
  C  C561  1  0.58512000  0.20867000  0.41543000  1
  C  C562  1  0.59020000  0.65169000  0.43161000  1
  C  C563  1  0.06839000  0.84831000  0.90980000  1
  C  C564  1  0.63056000  0.87937000  0.47773000  1
  C  C565  1  0.02227000  0.62063000  0.86944000  1
  C  C566  1  0.20700000  0.26910000  0.05470000  1
  C  C567  1  0.44530000  0.23090000  0.29300000  1
  C  C568  1  0.56149000  0.84141000  0.40980000  1
  C  C569  1  0.09020000  0.65859000  0.93851000  1
  C  C570  1  0.37937000  0.40164000  0.24881000  1
  C  C571  1  0.25119000  0.09836000  0.12063000  1
  C  C572  1  0.70867000  0.91543000  0.58512000  1
  C  C573  1  0.91488000  0.58457000  0.79133000  1
  C  C574  1  0.52227000  0.65283000  0.40164000  1
  C  C575  1  0.09836000  0.84717000  0.97773000  1
  C  C576  1  0.04576000  0.25927000  0.93967000  1
  C  C577  1  0.56033000  0.24073000  0.45424000  1
  C  C578  1  0.12063000  0.36944000  0.02227000  1
  C  C579  1  0.47773000  0.13056000  0.37937000  1
  C  C580  1  0.15169000  0.22008000  0.06149000  1
  C  C581  1  0.43851000  0.27992000  0.34831000  1
  C  C582  1  0.70867000  0.79324000  0.62355000  1
  C  C583  1  0.87645000  0.70676000  0.79133000  1
  C  C584  1  0.41488000  0.62355000  0.33031000  1
  C  C585  1  0.16969000  0.87645000  0.08512000  1
  C  C586  1  0.15859000  0.43851000  0.09020000  1
  C  C587  1  0.40980000  0.06149000  0.34141000  1
  C  C588  1  0.21440000  0.44530000  0.15230000  1
  C  C589  1  0.34770000  0.05470000  0.28560000  1
  C  C590  1  0.34141000  0.43161000  0.27992000  1
  C  C591  1  0.22008000  0.06839000  0.15859000  1
  C  C592  1  0.74073000  0.78649000  0.68040000  1
  C  C593  1  0.81960000  0.71351000  0.75927000  1
  C  C594  1  0.28560000  0.43790000  0.23090000  1
  C  C595  1  0.26910000  0.06210000  0.21440000  1
  C  C596  1  0.43967000  0.68040000  0.39391000  1
  C  C597  1  0.10609000  0.81960000  0.06033000  1
  C  C598  1  0.15283000  0.25119000  0.13056000  1
  C  C599  1  0.36944000  0.24881000  0.34717000  1
  N  N600  1  0.69097000  0.75943000  0.69908000  1
  N  N601  1  0.80092000  0.74057000  0.80903000  1
  N  N602  1  0.10612000  0.27155000  0.13855000  1
  N  N603  1  0.36145000  0.22845000  0.39388000  1
  N  N604  1  0.50811000  0.80903000  0.56846000  1
  N  N605  1  0.93154000  0.69097000  0.99189000  1
  N  N606  1  0.93965000  0.19908000  0.00811000  1
  N  N607  1  0.49189000  0.30092000  0.56035000  1
  N  N608  1  0.03243000  0.36700000  0.13855000  1
  N  N609  1  0.36145000  0.13300000  0.46757000  1
  N  N610  1  0.83457000  0.10612000  0.96757000  1
  N  N611  1  0.53243000  0.39388000  0.66543000  1
  N  N612  1  0.63300000  0.66543000  0.77155000  1
  N  N613  1  0.72845000  0.83457000  0.86700000  1
  N  N614  1  0.46757000  0.86145000  0.63300000  1
  N  N615  1  0.86700000  0.63855000  0.03243000  1
  N  N616  1  0.74057000  0.93965000  0.93154000  1
  N  N617  1  0.56846000  0.56035000  0.75943000  1
  N  N618  1  0.99189000  0.43154000  0.19097000  1
  N  N619  1  0.30903000  0.06846000  0.50811000  1
  N  N620  1  0.66543000  0.03243000  0.89388000  1
  N  N621  1  0.60612000  0.46757000  0.83457000  1
  N  N622  1  0.56035000  0.99189000  0.80092000  1
  N  N623  1  0.69908000  0.50811000  0.93965000  1
  N  N624  1  0.43154000  0.99189000  0.69097000  1
  N  N625  1  0.80903000  0.50811000  0.06846000  1
  N  N626  1  0.86145000  0.46757000  0.13300000  1
  N  N627  1  0.36700000  0.03243000  0.63855000  1
  N  N628  1  0.75943000  0.06846000  0.06035000  1
  N  N629  1  0.43965000  0.43154000  0.74057000  1
  N  N630  1  0.99189000  0.56035000  0.30092000  1
  N  N631  1  0.19908000  0.93965000  0.50811000  1
  N  N632  1  0.39388000  0.86145000  0.72845000  1
  N  N633  1  0.77155000  0.63855000  0.10612000  1
  N  N634  1  0.03243000  0.66543000  0.39388000  1
  N  N635  1  0.10612000  0.83457000  0.46757000  1
  N  N636  1  0.86145000  0.39388000  0.22845000  1
  N  N637  1  0.27155000  0.10612000  0.63855000  1
  N  N638  1  0.33457000  0.36700000  0.72845000  1
  N  N639  1  0.77155000  0.13300000  0.16543000  1
  N  N640  1  0.80903000  0.30092000  0.24057000  1
  N  N641  1  0.25943000  0.19908000  0.69097000  1
  N  N642  1  0.30092000  0.80903000  0.74057000  1
  N  N643  1  0.75943000  0.69097000  0.19908000  1
  N  N644  1  0.16543000  0.27155000  0.63300000  1
  N  N645  1  0.86700000  0.22845000  0.33457000  1
  N  N646  1  0.06846000  0.75943000  0.56035000  1
  N  N647  1  0.93965000  0.74057000  0.43154000  1
  N  N648  1  0.06035000  0.25943000  0.56846000  1
  N  N649  1  0.93154000  0.24057000  0.43965000  1
  N  N650  1  0.13300000  0.77155000  0.66543000  1
  N  N651  1  0.83457000  0.72845000  0.36700000  1
  N  N652  1  0.24057000  0.30903000  0.80092000  1
  N  N653  1  0.69908000  0.19097000  0.25943000  1
  N  N654  1  0.74057000  0.80092000  0.30903000  1
  N  N655  1  0.19097000  0.69908000  0.75943000  1
  N  N656  1  0.22845000  0.86700000  0.83457000  1
  N  N657  1  0.66543000  0.63300000  0.27155000  1
  N  N658  1  0.72845000  0.89388000  0.36145000  1
  N  N659  1  0.13855000  0.60612000  0.77155000  1
  N  N660  1  0.89388000  0.16543000  0.53243000  1
  N  N661  1  0.96757000  0.33457000  0.60612000  1
  N  N662  1  0.22845000  0.36145000  0.89388000  1
  N  N663  1  0.60612000  0.13855000  0.27155000  1
  N  N664  1  0.80092000  0.06035000  0.49189000  1
  N  N665  1  0.00811000  0.43965000  0.69908000  1
  N  N666  1  0.56035000  0.56846000  0.25943000  1
  N  N667  1  0.24057000  0.93154000  0.93965000  1
  N  N668  1  0.63300000  0.96757000  0.36145000  1
  N  N669  1  0.13855000  0.53243000  0.86700000  1
  N  N670  1  0.19097000  0.49189000  0.93154000  1
  N  N671  1  0.56846000  0.00811000  0.30903000  1
  N  N672  1  0.30092000  0.49189000  0.06035000  1
  N  N673  1  0.43965000  0.00811000  0.19908000  1
  N  N674  1  0.39388000  0.53243000  0.16543000  1
  N  N675  1  0.33457000  0.96757000  0.10612000  1
  N  N676  1  0.69097000  0.93154000  0.49189000  1
  N  N677  1  0.00811000  0.56846000  0.80903000  1
  N  N678  1  0.43154000  0.43965000  0.24057000  1
  N  N679  1  0.25943000  0.06035000  0.06846000  1
  N  N680  1  0.13300000  0.36145000  0.96757000  1
  N  N681  1  0.53243000  0.13855000  0.36700000  1
  N  N682  1  0.27155000  0.16543000  0.13300000  1
  N  N683  1  0.36700000  0.33457000  0.22845000  1
  N  N684  1  0.46757000  0.60612000  0.33457000  1
  N  N685  1  0.16543000  0.89388000  0.03243000  1
  N  N686  1  0.63855000  0.86700000  0.53243000  1
  N  N687  1  0.96757000  0.63300000  0.86145000  1
  N  N688  1  0.50811000  0.69908000  0.43965000  1
  N  N689  1  0.06035000  0.80092000  0.99189000  1
  N  N690  1  0.06846000  0.30903000  0.00811000  1
  N  N691  1  0.49189000  0.19097000  0.43154000  1
  N  N692  1  0.63855000  0.77155000  0.60612000  1
  N  N693  1  0.89388000  0.72845000  0.86145000  1
  N  N694  1  0.19908000  0.25943000  0.19097000  1
  N  N695  1  0.30903000  0.24057000  0.30092000  1
