# generated using pymatgen
data_ZnH8C17(O2F3)2
_symmetry_space_group_name_H-M   'P 1'
_cell_length_a   7.72000000
_cell_length_b   21.25000000
_cell_length_c   21.25000000
_cell_angle_alpha   120.00000000
_cell_angle_beta   90.00000000
_cell_angle_gamma   90.00000000
_symmetry_Int_Tables_number   1
_chemical_formula_structural   ZnH8C17(O2F3)2
_chemical_formula_sum   'Zn6 H48 C102 O24 F36'
_cell_volume   3019.01868418
_cell_formula_units_Z   6
loop_
 _symmetry_equiv_pos_site_id
 _symmetry_equiv_pos_as_xyz
  1  'x, y, z'
loop_
 _atom_site_type_symbol
 _atom_site_label
 _atom_site_symmetry_multiplicity
 _atom_site_fract_x
 _atom_site_fract_y
 _atom_site_fract_z
 _atom_site_occupancy
  Zn  Zn0  1  0.16667000  0.59806000  0.29903000  1
  Zn  Zn1  1  0.16667000  0.40194000  0.70097000  1
  Zn  Zn2  1  0.50000000  0.70097000  0.40194000  1
  Zn  Zn3  1  0.50000000  0.29903000  0.59806000  1
  Zn  Zn4  1  0.83333000  0.70097000  0.29903000  1
  Zn  Zn5  1  0.83333000  0.29903000  0.70097000  1
  H  H6  1  0.05773000  0.25360000  0.84570000  1
  H  H7  1  0.05773000  0.74640000  0.15430000  1
  H  H8  1  0.06593000  0.06960000  0.65690000  1
  H  H9  1  0.06593000  0.93040000  0.34310000  1
  H  H10  1  0.14080000  0.84320000  0.48080000  1
  H  H11  1  0.14080000  0.15680000  0.51920000  1
  H  H12  1  0.15290000  0.76400000  0.69900000  1
  H  H13  1  0.15290000  0.23600000  0.30100000  1
  H  H14  1  0.18043000  0.23600000  0.93500000  1
  H  H15  1  0.18043000  0.76400000  0.06500000  1
  H  H16  1  0.19253000  0.84320000  0.36240000  1
  H  H17  1  0.19253000  0.15680000  0.63760000  1
  H  H18  1  0.26740000  0.93040000  0.58730000  1
  H  H19  1  0.26740000  0.06960000  0.41270000  1
  H  H20  1  0.27560000  0.74640000  0.59210000  1
  H  H21  1  0.27560000  0.25360000  0.40790000  1
  H  H22  1  0.39107000  0.40790000  0.25360000  1
  H  H23  1  0.39107000  0.59210000  0.74640000  1
  H  H24  1  0.39927000  0.41270000  0.06960000  1
  H  H25  1  0.39927000  0.58730000  0.93040000  1
  H  H26  1  0.47413000  0.63760000  0.15680000  1
  H  H27  1  0.47413000  0.36240000  0.84320000  1
  H  H28  1  0.48623000  0.06500000  0.76400000  1
  H  H29  1  0.48623000  0.93500000  0.23600000  1
  H  H30  1  0.51377000  0.30100000  0.23600000  1
  H  H31  1  0.51377000  0.69900000  0.76400000  1
  H  H32  1  0.52587000  0.51920000  0.15680000  1
  H  H33  1  0.52587000  0.48080000  0.84320000  1
  H  H34  1  0.60073000  0.34310000  0.93040000  1
  H  H35  1  0.60073000  0.65690000  0.06960000  1
  H  H36  1  0.60893000  0.15430000  0.74640000  1
  H  H37  1  0.60893000  0.84570000  0.25360000  1
  H  H38  1  0.72440000  0.84570000  0.59210000  1
  H  H39  1  0.72440000  0.15430000  0.40790000  1
  H  H40  1  0.73260000  0.65690000  0.58730000  1
  H  H41  1  0.73260000  0.34310000  0.41270000  1
  H  H42  1  0.80747000  0.51920000  0.36240000  1
  H  H43  1  0.80747000  0.48080000  0.63760000  1
  H  H44  1  0.81957000  0.30100000  0.06500000  1
  H  H45  1  0.81957000  0.69900000  0.93500000  1
  H  H46  1  0.84710000  0.93500000  0.69900000  1
  H  H47  1  0.84710000  0.06500000  0.30100000  1
  H  H48  1  0.85920000  0.63760000  0.48080000  1
  H  H49  1  0.85920000  0.36240000  0.51920000  1
  H  H50  1  0.93407000  0.41270000  0.34310000  1
  H  H51  1  0.93407000  0.58730000  0.65690000  1
  H  H52  1  0.94227000  0.40790000  0.15430000  1
  H  H53  1  0.94227000  0.59210000  0.84570000  1
  C  C54  1  0.04110000  0.04280000  0.78750000  1
  C  C55  1  0.04110000  0.95720000  0.21250000  1
  C  C56  1  0.07380000  0.94270000  0.65470000  1
  C  C57  1  0.07380000  0.05730000  0.34530000  1
  C  C58  1  0.08130000  0.86170000  0.52460000  1
  C  C59  1  0.08130000  0.13830000  0.47540000  1
  C  C60  1  0.08460000  0.68930000  0.52650000  1
  C  C61  1  0.08460000  0.31070000  0.47350000  1
  C  C62  1  0.09230000  0.73880000  0.65550000  1
  C  C63  1  0.09230000  0.26120000  0.34450000  1
  C  C64  1  0.15660000  0.91400000  0.58880000  1
  C  C65  1  0.15660000  0.08600000  0.41120000  1
  C  C66  1  0.16163000  0.67700000  0.21960000  1
  C  C67  1  0.16163000  0.32300000  0.78040000  1
  C  C68  1  0.16650000  0.72730000  0.59080000  1
  C  C69  1  0.16650000  0.27270000  0.40920000  1
  C  C70  1  0.16667000  0.00000000  0.72310000  1
  C  C71  1  0.16667000  0.00000000  0.27690000  1
  C  C72  1  0.16683000  0.27270000  0.86350000  1
  C  C73  1  0.16683000  0.72730000  0.13650000  1
  C  C74  1  0.17170000  0.67700000  0.45740000  1
  C  C75  1  0.17170000  0.32300000  0.54260000  1
  C  C76  1  0.17673000  0.08600000  0.67480000  1
  C  C77  1  0.17673000  0.91400000  0.32520000  1
  C  C78  1  0.24103000  0.26120000  0.91670000  1
  C  C79  1  0.24103000  0.73880000  0.08330000  1
  C  C80  1  0.24873000  0.31070000  0.83720000  1
  C  C81  1  0.24873000  0.68930000  0.16280000  1
  C  C82  1  0.25203000  0.13830000  0.66290000  1
  C  C83  1  0.25203000  0.86170000  0.33710000  1
  C  C84  1  0.25953000  0.05730000  0.71200000  1
  C  C85  1  0.25953000  0.94270000  0.28800000  1
  C  C86  1  0.29223000  0.95720000  0.74470000  1
  C  C87  1  0.29223000  0.04280000  0.25530000  1
  C  C88  1  0.37443000  0.25530000  0.04280000  1
  C  C89  1  0.37443000  0.74470000  0.95720000  1
  C  C90  1  0.40713000  0.28800000  0.94270000  1
  C  C91  1  0.40713000  0.71200000  0.05730000  1
  C  C92  1  0.41463000  0.33710000  0.86170000  1
  C  C93  1  0.41463000  0.66290000  0.13830000  1
  C  C94  1  0.41793000  0.16280000  0.68930000  1
  C  C95  1  0.41793000  0.83720000  0.31070000  1
  C  C96  1  0.42563000  0.08330000  0.73880000  1
  C  C97  1  0.42563000  0.91670000  0.26120000  1
  C  C98  1  0.48993000  0.32520000  0.91400000  1
  C  C99  1  0.48993000  0.67480000  0.08600000  1
  C  C100  1  0.49497000  0.54260000  0.32300000  1
  C  C101  1  0.49497000  0.45740000  0.67700000  1
  C  C102  1  0.49983000  0.13650000  0.72730000  1
  C  C103  1  0.49983000  0.86350000  0.27270000  1
  C  C104  1  0.50000000  0.27690000  0.00000000  1
  C  C105  1  0.50000000  0.72310000  1.00000000  1
  C  C106  1  0.50017000  0.40920000  0.27270000  1
  C  C107  1  0.50017000  0.59080000  0.72730000  1
  C  C108  1  0.50503000  0.78040000  0.32300000  1
  C  C109  1  0.50503000  0.21960000  0.67700000  1
  C  C110  1  0.51007000  0.41120000  0.08600000  1
  C  C111  1  0.51007000  0.58880000  0.91400000  1
  C  C112  1  0.57437000  0.34450000  0.26120000  1
  C  C113  1  0.57437000  0.65550000  0.73880000  1
  C  C114  1  0.58207000  0.47350000  0.31070000  1
  C  C115  1  0.58207000  0.52650000  0.68930000  1
  C  C116  1  0.58537000  0.47540000  0.13830000  1
  C  C117  1  0.58537000  0.52460000  0.86170000  1
  C  C118  1  0.59287000  0.34530000  0.05730000  1
  C  C119  1  0.59287000  0.65470000  0.94270000  1
  C  C120  1  0.62557000  0.21250000  0.95720000  1
  C  C121  1  0.62557000  0.78750000  0.04280000  1
  C  C122  1  0.70777000  0.78750000  0.74470000  1
  C  C123  1  0.70777000  0.21250000  0.25530000  1
  C  C124  1  0.74047000  0.34530000  0.28800000  1
  C  C125  1  0.74047000  0.65470000  0.71200000  1
  C  C126  1  0.74797000  0.47540000  0.33710000  1
  C  C127  1  0.74797000  0.52460000  0.66290000  1
  C  C128  1  0.75127000  0.47350000  0.16280000  1
  C  C129  1  0.75127000  0.52650000  0.83720000  1
  C  C130  1  0.75897000  0.34450000  0.08330000  1
  C  C131  1  0.75897000  0.65550000  0.91670000  1
  C  C132  1  0.82327000  0.41120000  0.32520000  1
  C  C133  1  0.82327000  0.58880000  0.67480000  1
  C  C134  1  0.82830000  0.78040000  0.45740000  1
  C  C135  1  0.82830000  0.21960000  0.54260000  1
  C  C136  1  0.83317000  0.40920000  0.13650000  1
  C  C137  1  0.83317000  0.59080000  0.86350000  1
  C  C138  1  0.83333000  0.27690000  0.27690000  1
  C  C139  1  0.83333000  0.72310000  0.72310000  1
  C  C140  1  0.83350000  0.86350000  0.59080000  1
  C  C141  1  0.83350000  0.13650000  0.40920000  1
  C  C142  1  0.83837000  0.54260000  0.21960000  1
  C  C143  1  0.83837000  0.45740000  0.78040000  1
  C  C144  1  0.84340000  0.67480000  0.58880000  1
  C  C145  1  0.84340000  0.32520000  0.41120000  1
  C  C146  1  0.90770000  0.91670000  0.65550000  1
  C  C147  1  0.90770000  0.08330000  0.34450000  1
  C  C148  1  0.91540000  0.83720000  0.52650000  1
  C  C149  1  0.91540000  0.16280000  0.47350000  1
  C  C150  1  0.91870000  0.66290000  0.52460000  1
  C  C151  1  0.91870000  0.33710000  0.47540000  1
  C  C152  1  0.92620000  0.71200000  0.65470000  1
  C  C153  1  0.92620000  0.28800000  0.34530000  1
  C  C154  1  0.95890000  0.25530000  0.21250000  1
  C  C155  1  0.95890000  0.74470000  0.78750000  1
  O  O156  1  0.01903000  0.70660000  0.24220000  1
  O  O157  1  0.01903000  0.29340000  0.75780000  1
  O  O158  1  0.09270000  0.63760000  0.39870000  1
  O  O159  1  0.09270000  0.36240000  0.60130000  1
  O  O160  1  0.24063000  0.63760000  0.23890000  1
  O  O161  1  0.24063000  0.36240000  0.76110000  1
  O  O162  1  0.31430000  0.70660000  0.46440000  1
  O  O163  1  0.31430000  0.29340000  0.53560000  1
  O  O164  1  0.35237000  0.53560000  0.29340000  1
  O  O165  1  0.35237000  0.46440000  0.70660000  1
  O  O166  1  0.42603000  0.76110000  0.36240000  1
  O  O167  1  0.42603000  0.23890000  0.63760000  1
  O  O168  1  0.57397000  0.60130000  0.36240000  1
  O  O169  1  0.57397000  0.39870000  0.63760000  1
  O  O170  1  0.64763000  0.75780000  0.29340000  1
  O  O171  1  0.64763000  0.24220000  0.70660000  1
  O  O172  1  0.68570000  0.75780000  0.46440000  1
  O  O173  1  0.68570000  0.24220000  0.53560000  1
  O  O174  1  0.75937000  0.60130000  0.23890000  1
  O  O175  1  0.75937000  0.39870000  0.76110000  1
  O  O176  1  0.90730000  0.76110000  0.39870000  1
  O  O177  1  0.90730000  0.23890000  0.60130000  1
  O  O178  1  0.98097000  0.53560000  0.24220000  1
  O  O179  1  0.98097000  0.46440000  0.75780000  1
  F  F180  1  0.03030000  0.18990000  0.18700000  1
  F  F181  1  0.03030000  0.81010000  0.81300000  1
  F  F182  1  0.08790000  0.30230000  0.23080000  1
  F  F183  1  0.08790000  0.69770000  0.76920000  1
  F  F184  1  0.12250000  0.09760000  0.84410000  1
  F  F185  1  0.12250000  0.90240000  0.15590000  1
  F  F186  1  0.21083000  0.90240000  0.74650000  1
  F  F187  1  0.21083000  0.09760000  0.25350000  1
  F  F188  1  0.24543000  0.30230000  0.07150000  1
  F  F189  1  0.24543000  0.69770000  0.92850000  1
  F  F190  1  0.30303000  0.18990000  0.00290000  1
  F  F191  1  0.30303000  0.81010000  0.99710000  1
  F  F192  1  0.36363000  0.99710000  0.81010000  1
  F  F193  1  0.36363000  0.00290000  0.18990000  1
  F  F194  1  0.42123000  0.92850000  0.69770000  1
  F  F195  1  0.42123000  0.07150000  0.30230000  1
  F  F196  1  0.45583000  0.25350000  0.09760000  1
  F  F197  1  0.45583000  0.74650000  0.90240000  1
  F  F198  1  0.54417000  0.15590000  0.90240000  1
  F  F199  1  0.54417000  0.84410000  0.09760000  1
  F  F200  1  0.57877000  0.76920000  0.69770000  1
  F  F201  1  0.57877000  0.23080000  0.30230000  1
  F  F202  1  0.63637000  0.81300000  0.81010000  1
  F  F203  1  0.63637000  0.18700000  0.18990000  1
  F  F204  1  0.69697000  0.18700000  0.99710000  1
  F  F205  1  0.69697000  0.81300000  0.00290000  1
  F  F206  1  0.75457000  0.23080000  0.92850000  1
  F  F207  1  0.75457000  0.76920000  0.07150000  1
  F  F208  1  0.78917000  0.84410000  0.74650000  1
  F  F209  1  0.78917000  0.15590000  0.25350000  1
  F  F210  1  0.87750000  0.25350000  0.15590000  1
  F  F211  1  0.87750000  0.74650000  0.84410000  1
  F  F212  1  0.91210000  0.07150000  0.76920000  1
  F  F213  1  0.91210000  0.92850000  0.23080000  1
  F  F214  1  0.96970000  0.00290000  0.81300000  1
  F  F215  1  0.96970000  0.99710000  0.18700000  1
