# generated using pymatgen
data_Zn4H16C30O13
_symmetry_space_group_name_H-M   'P 1'
_cell_length_a   17.30430000
_cell_length_b   17.95650000
_cell_length_c   18.37700000
_cell_angle_alpha   90.00000000
_cell_angle_beta   90.00000000
_cell_angle_gamma   90.00000000
_symmetry_Int_Tables_number   1
_chemical_formula_structural   Zn4H16C30O13
_chemical_formula_sum   'Zn16 H64 C120 O52'
_cell_volume   5710.18713103
_cell_formula_units_Z   4
loop_
 _symmetry_equiv_pos_site_id
 _symmetry_equiv_pos_as_xyz
  1  'x, y, z'
loop_
 _atom_site_type_symbol
 _atom_site_label
 _atom_site_symmetry_multiplicity
 _atom_site_fract_x
 _atom_site_fract_y
 _atom_site_fract_z
 _atom_site_occupancy
  Zn  Zn0  1  0.82854000  0.47178000  0.26397000  1
  Zn  Zn1  1  0.82853000  0.47276000  0.09996000  1
  Zn  Zn2  1  0.82351000  0.05602000  0.68190000  1
  Zn  Zn3  1  0.82344000  0.88783000  0.68211000  1
  Zn  Zn4  1  0.70362000  0.38798000  0.18215000  1
  Zn  Zn5  1  0.70324000  0.55614000  0.18173000  1
  Zn  Zn6  1  0.69853000  0.97160000  0.76409000  1
  Zn  Zn7  1  0.69831000  0.97264000  0.60003000  1
  Zn  Zn8  1  0.30191000  0.02784000  0.39993000  1
  Zn  Zn9  1  0.30144000  0.02918000  0.23589000  1
  Zn  Zn10  1  0.29673000  0.44461000  0.81835000  1
  Zn  Zn11  1  0.29653000  0.61277000  0.81783000  1
  Zn  Zn12  1  0.17665000  0.11275000  0.31820000  1
  Zn  Zn13  1  0.17657000  0.94457000  0.31813000  1
  Zn  Zn14  1  0.17165000  0.52885000  0.73587000  1
  Zn  Zn15  1  0.17136000  0.52814000  0.89988000  1
  H  H16  1  0.93711000  0.91541000  0.35768000  1
  H  H17  1  0.93667000  0.14180000  0.27950000  1
  H  H18  1  0.93231000  0.46410000  0.91690000  1
  H  H19  1  0.93172000  0.59215000  0.71854000  1
  H  H20  1  0.87345000  0.31049000  0.42417000  1
  H  H21  1  0.87227000  0.63320000  0.93936000  1
  H  H22  1  0.87163000  0.21645000  0.52067000  1
  H  H23  1  0.86929000  0.72535000  0.84138000  1
  H  H24  1  0.85486000  0.61643000  0.44031000  1
  H  H25  1  0.85343000  0.32929000  0.92198000  1
  H  H26  1  0.85306000  0.71065000  0.53640000  1
  H  H27  1  0.85086000  0.23535000  0.82569000  1
  H  H28  1  0.79545000  0.91505000  0.35735000  1
  H  H29  1  0.79513000  0.14070000  0.27724000  1
  H  H30  1  0.79036000  0.46320000  0.91647000  1
  H  H31  1  0.78977000  0.59313000  0.71958000  1
  H  H32  1  0.68325000  0.08400000  0.21335000  1
  H  H33  1  0.68316000  0.97137000  0.42025000  1
  H  H34  1  0.67868000  0.64543000  0.79229000  1
  H  H35  1  0.67819000  0.41196000  0.84674000  1
  H  H36  1  0.67547000  0.73521000  0.32594000  1
  H  H37  1  0.67538000  0.20972000  0.03761000  1
  H  H38  1  0.67330000  0.82925000  0.42219000  1
  H  H39  1  0.67317000  0.11558000  0.94150000  1
  H  H40  1  0.65649000  0.71824000  0.02210000  1
  H  H41  1  0.65499000  0.22862000  0.34430000  1
  H  H42  1  0.65455000  0.81195000  0.92533000  1
  H  H43  1  0.65227000  0.13607000  0.44199000  1
  H  H44  1  0.54149000  0.97320000  0.42143000  1
  H  H45  1  0.54140000  0.08373000  0.21321000  1
  H  H46  1  0.53698000  0.64594000  0.79297000  1
  H  H47  1  0.53651000  0.41208000  0.84647000  1
  H  H48  1  0.46371000  0.58700000  0.14815000  1
  H  H49  1  0.46315000  0.35607000  0.21277000  1
  H  H50  1  0.45918000  0.91709000  0.78715000  1
  H  H51  1  0.45816000  0.02632000  0.57824000  1
  H  H52  1  0.34747000  0.86524000  0.55857000  1
  H  H53  1  0.34449000  0.77307000  0.65656000  1
  H  H54  1  0.34409000  0.18780000  0.07383000  1
  H  H55  1  0.34231000  0.28156000  0.97716000  1
  H  H56  1  0.32861000  0.17230000  0.57717000  1
  H  H57  1  0.32790000  0.88445000  0.05924000  1
  H  H58  1  0.32642000  0.26651000  0.67329000  1
  H  H59  1  0.32587000  0.79023000  0.96313000  1
  H  H60  1  0.32226000  0.58718000  0.14732000  1
  H  H61  1  0.32155000  0.35635000  0.21258000  1
  H  H62  1  0.31729000  0.91649000  0.78741000  1
  H  H63  1  0.31645000  0.02829000  0.58007000  1
  H  H64  1  0.21005000  0.40662000  0.27941000  1
  H  H65  1  0.20949000  0.53871000  0.08362000  1
  H  H66  1  0.20500000  0.85898000  0.72255000  1
  H  H67  1  0.20490000  0.08566000  0.64533000  1
  H  H68  1  0.14588000  0.28848000  0.46477000  1
  H  H69  1  0.14550000  0.76801000  0.17173000  1
  H  H70  1  0.14393000  0.38278000  0.56074000  1
  H  H71  1  0.14325000  0.67394000  0.07555000  1
  H  H72  1  0.13097000  0.27632000  0.15946000  1
  H  H73  1  0.12978000  0.78270000  0.47795000  1
  H  H74  1  0.12800000  0.36844000  0.06140000  1
  H  H75  1  0.12793000  0.68877000  0.57453000  1
  H  H76  1  0.06830000  0.40768000  0.28037000  1
  H  H77  1  0.06769000  0.53801000  0.08339000  1
  H  H78  1  0.06342000  0.85801000  0.72027000  1
  H  H79  1  0.06324000  0.08564000  0.64554000  1
  C  C80  1  0.96884000  0.47246000  0.18190000  1
  C  C81  1  0.96374000  0.97170000  0.68240000  1
  C  C82  1  0.94911000  0.02864000  0.31860000  1
  C  C83  1  0.94404000  0.52807000  0.81766000  1
  C  C84  1  0.90694000  0.96516000  0.34020000  1
  C  C85  1  0.90673000  0.09182000  0.29659000  1
  C  C86  1  0.90205000  0.49216000  0.87325000  1
  C  C87  1  0.90167000  0.56372000  0.76215000  1
  C  C88  1  0.82538000  0.96508000  0.34036000  1
  C  C89  1  0.82519000  0.09109000  0.29503000  1
  C  C90  1  0.82481000  0.27268000  0.42724000  1
  C  C91  1  0.82379000  0.67111000  0.93642000  1
  C  C92  1  0.82373000  0.21864000  0.48282000  1
  C  C93  1  0.82230000  0.72443000  0.88028000  1
  C  C94  1  0.82048000  0.49127000  0.87285000  1
  C  C95  1  0.82009000  0.56458000  0.76293000  1
  C  C96  1  0.81493000  0.66258000  0.43546000  1
  C  C97  1  0.81385000  0.71683000  0.49087000  1
  C  C98  1  0.81360000  0.28308000  0.92704000  1
  C  C99  1  0.81217000  0.22890000  0.87157000  1
  C  C100  1  0.78295000  0.02784000  0.31728000  1
  C  C101  1  0.77801000  0.52811000  0.81819000  1
  C  C102  1  0.76577000  0.33585000  0.04739000  1
  C  C103  1  0.76576000  0.60894000  0.31612000  1
  C  C104  1  0.76545000  0.33549000  0.31676000  1
  C  C105  1  0.76522000  0.66758000  0.37484000  1
  C  C106  1  0.76507000  0.60903000  0.04748000  1
  C  C107  1  0.76464000  0.27769000  0.98821000  1
  C  C108  1  0.76449000  0.27746000  0.37585000  1
  C  C109  1  0.76416000  0.66720000  0.98854000  1
  C  C110  1  0.76296000  0.77808000  0.48772000  1
  C  C111  1  0.76216000  0.16768000  0.48909000  1
  C  C112  1  0.76191000  0.16720000  0.87529000  1
  C  C113  1  0.76180000  0.83613000  0.54700000  1
  C  C114  1  0.76175000  0.77660000  0.87505000  1
  C  C115  1  0.76140000  0.10923000  0.54779000  1
  C  C116  1  0.76122000  0.10860000  0.81650000  1
  C  C117  1  0.76110000  0.83484000  0.81621000  1
  C  C118  1  0.71461000  0.72902000  0.37149000  1
  C  C119  1  0.71413000  0.21616000  0.99177000  1
  C  C120  1  0.71339000  0.78320000  0.42697000  1
  C  C121  1  0.71282000  0.16192000  0.93635000  1
  C  C122  1  0.70353000  0.71930000  0.98325000  1
  C  C123  1  0.70281000  0.22663000  0.38225000  1
  C  C124  1  0.70241000  0.77316000  0.92754000  1
  C  C125  1  0.70146000  0.17304000  0.43820000  1
  C  C126  1  0.69544000  0.02747000  0.31680000  1
  C  C127  1  0.69058000  0.52856000  0.81904000  1
  C  C128  1  0.65313000  0.05947000  0.25911000  1
  C  C129  1  0.65307000  0.99573000  0.37456000  1
  C  C130  1  0.64844000  0.59399000  0.80390000  1
  C  C131  1  0.64817000  0.46355000  0.83507000  1
  C  C132  1  0.57154000  0.99731000  0.37546000  1
  C  C133  1  0.57154000  0.05907000  0.25890000  1
  C  C134  1  0.56685000  0.59433000  0.80467000  1
  C  C135  1  0.56661000  0.46356000  0.83456000  1
  C  C136  1  0.56311000  0.47174000  0.18141000  1
  C  C137  1  0.55807000  0.97173000  0.68222000  1
  C  C138  1  0.52930000  0.02845000  0.31734000  1
  C  C139  1  0.52437000  0.52896000  0.81941000  1
  C  C140  1  0.47575000  0.47161000  0.18077000  1
  C  C141  1  0.47083000  0.97172000  0.68262000  1
  C  C142  1  0.44206000  0.02867000  0.31759000  1
  C  C143  1  0.43699000  0.52892000  0.81883000  1
  C  C144  1  0.43360000  0.53616000  0.16240000  1
  C  C145  1  0.43326000  0.40700000  0.19841000  1
  C  C146  1  0.42884000  0.94138000  0.74139000  1
  C  C147  1  0.42832000  0.00250000  0.62449000  1
  C  C148  1  0.35208000  0.53615000  0.16160000  1
  C  C149  1  0.35166000  0.40732000  0.19875000  1
  C  C150  1  0.34724000  0.94084000  0.74147000  1
  C  C151  1  0.34680000  0.00411000  0.62574000  1
  C  C152  1  0.30955000  0.47193000  0.18044000  1
  C  C153  1  0.30469000  0.97260000  0.68381000  1
  C  C154  1  0.29860000  0.82786000  0.56198000  1
  C  C155  1  0.29716000  0.77443000  0.61804000  1
  C  C156  1  0.29665000  0.22709000  0.07206000  1
  C  C157  1  0.29556000  0.28095000  0.01634000  1
  C  C158  1  0.28785000  0.21782000  0.57278000  1
  C  C159  1  0.28731000  0.83879000  0.06369000  1
  C  C160  1  0.28661000  0.27211000  0.62816000  1
  C  C161  1  0.28611000  0.78452000  0.00829000  1
  C  C162  1  0.23903000  0.89107000  0.45191000  1
  C  C163  1  0.23865000  0.16425000  0.45327000  1
  C  C164  1  0.23857000  0.16595000  0.18398000  1
  C  C165  1  0.23837000  0.83259000  0.51055000  1
  C  C166  1  0.23816000  0.89256000  0.18307000  1
  C  C167  1  0.23782000  0.22422000  0.12510000  1
  C  C168  1  0.23749000  0.22227000  0.51255000  1
  C  C169  1  0.23704000  0.83429000  0.12396000  1
  C  C170  1  0.23598000  0.72302000  0.62393000  1
  C  C171  1  0.23539000  0.33358000  0.01148000  1
  C  C172  1  0.23510000  0.33291000  0.62528000  1
  C  C173  1  0.23498000  0.66505000  0.68307000  1
  C  C174  1  0.23462000  0.39182000  0.95257000  1
  C  C175  1  0.23457000  0.72375000  0.01109000  1
  C  C176  1  0.23446000  0.39165000  0.68394000  1
  C  C177  1  0.23381000  0.66533000  0.95218000  1
  C  C178  1  0.22203000  0.47259000  0.18131000  1
  C  C179  1  0.21723000  0.97227000  0.68374000  1
  C  C180  1  0.18576000  0.28288000  0.50986000  1
  C  C181  1  0.18538000  0.77361000  0.12667000  1
  C  C182  1  0.18460000  0.33719000  0.56518000  1
  C  C183  1  0.18412000  0.71938000  0.07125000  1
  C  C184  1  0.17989000  0.43563000  0.23627000  1
  C  C185  1  0.17951000  0.51010000  0.12703000  1
  C  C186  1  0.17766000  0.27683000  0.12023000  1
  C  C187  1  0.17728000  0.78105000  0.51629000  1
  C  C188  1  0.17619000  0.72708000  0.57193000  1
  C  C189  1  0.17614000  0.33011000  0.06401000  1
  C  C190  1  0.17495000  0.90883000  0.70534000  1
  C  C191  1  0.17488000  0.03546000  0.66170000  1
  C  C192  1  0.09833000  0.43655000  0.23704000  1
  C  C193  1  0.09797000  0.50936000  0.12669000  1
  C  C194  1  0.09340000  0.90820000  0.70383000  1
  C  C195  1  0.09332000  0.03552000  0.66205000  1
  C  C196  1  0.05599000  0.47279000  0.18186000  1
  C  C197  1  0.05105000  0.97175000  0.68265000  1
  C  C198  1  0.03638000  0.02875000  0.31853000  1
  C  C199  1  0.03119000  0.52838000  0.81770000  1
  O  O200  1  0.93212000  0.47085000  0.24213000  1
  O  O201  1  0.93208000  0.47390000  0.12169000  1
  O  O202  1  0.92695000  0.91009000  0.68298000  1
  O  O203  1  0.92693000  0.03332000  0.68161000  1
  O  O204  1  0.81162000  0.55345000  0.32133000  1
  O  O205  1  0.81161000  0.39134000  0.04234000  1
  O  O206  1  0.81157000  0.39068000  0.32166000  1
  O  O207  1  0.81135000  0.55399000  0.04259000  1
  O  O208  1  0.80734000  0.11471000  0.60188000  1
  O  O209  1  0.80706000  0.82983000  0.60158000  1
  O  O210  1  0.80665000  0.82890000  0.76187000  1
  O  O211  1  0.80662000  0.11462000  0.76198000  1
  O  O212  1  0.76595000  0.47216000  0.18194000  1
  O  O213  1  0.76097000  0.97203000  0.68202000  1
  O  O214  1  0.72052000  0.32959000  0.10198000  1
  O  O215  1  0.72008000  0.61479000  0.26178000  1
  O  O216  1  0.71993000  0.32950000  0.26239000  1
  O  O217  1  0.71930000  0.61473000  0.10167000  1
  O  O218  1  0.71574000  0.89148000  0.54212000  1
  O  O219  1  0.71553000  0.05301000  0.82177000  1
  O  O220  1  0.71537000  0.89029000  0.82142000  1
  O  O221  1  0.71506000  0.05424000  0.54288000  1
  O  O222  1  0.60008000  0.41023000  0.18215000  1
  O  O223  1  0.59982000  0.53344000  0.18119000  1
  O  O224  1  0.59500000  0.97067000  0.74233000  1
  O  O225  1  0.59467000  0.97302000  0.62190000  1
  O  O226  1  0.40545000  0.02729000  0.37790000  1
  O  O227  1  0.40509000  0.03000000  0.25747000  1
  O  O228  1  0.40018000  0.46727000  0.81900000  1
  O  O229  1  0.40008000  0.59048000  0.81813000  1
  O  O230  1  0.28517000  0.94620000  0.45696000  1
  O  O231  1  0.28474000  0.10892000  0.45804000  1
  O  O232  1  0.28440000  0.11058000  0.17873000  1
  O  O233  1  0.28416000  0.94795000  0.17804000  1
  O  O234  1  0.28045000  0.67110000  0.73748000  1
  O  O235  1  0.28040000  0.38606000  0.89840000  1
  O  O236  1  0.28004000  0.38589000  0.73834000  1
  O  O237  1  0.27937000  0.67137000  0.89779000  1
  O  O238  1  0.23912000  0.02860000  0.31804000  1
  O  O239  1  0.23409000  0.52860000  0.81798000  1
  O  O240  1  0.19330000  0.17059000  0.39876000  1
  O  O241  1  0.19311000  0.17183000  0.23841000  1
  O  O242  1  0.19310000  0.88557000  0.39782000  1
  O  O243  1  0.19287000  0.88641000  0.23766000  1
  O  O244  1  0.18888000  0.60985000  0.67816000  1
  O  O245  1  0.18860000  0.44712000  0.67863000  1
  O  O246  1  0.18844000  0.44695000  0.95744000  1
  O  O247  1  0.18799000  0.60984000  0.95726000  1
  O  O248  1  0.07321000  0.96715000  0.31909000  1
  O  O249  1  0.07316000  0.09038000  0.31774000  1
  O  O250  1  0.06801000  0.52991000  0.75752000  1
  O  O251  1  0.06786000  0.52698000  0.87796000  1
