# generated using pymatgen
data_Cu4SiH12(C2O)16
_symmetry_space_group_name_H-M   'P 1'
_cell_length_a   9.10500000
_cell_length_b   17.49200000
_cell_length_c   17.49200000
_cell_angle_alpha   90.00000000
_cell_angle_beta   90.00000000
_cell_angle_gamma   90.00000000
_symmetry_Int_Tables_number   1
_chemical_formula_structural   Cu4SiH12(C2O)16
_chemical_formula_sum   'Cu8 Si2 H24 C64 O32'
_cell_volume   2785.85743272
_cell_formula_units_Z   2
loop_
 _symmetry_equiv_pos_site_id
 _symmetry_equiv_pos_as_xyz
  1  'x, y, z'
loop_
 _atom_site_type_symbol
 _atom_site_label
 _atom_site_symmetry_multiplicity
 _atom_site_fract_x
 _atom_site_fract_y
 _atom_site_fract_z
 _atom_site_occupancy
  Cu  Cu0  1  0.41513000  0.54372000  0.54372000  1
  Cu  Cu1  1  0.41513000  0.54372000  0.95628000  1
  Cu  Cu2  1  0.41513000  0.95628000  0.54372000  1
  Cu  Cu3  1  0.41513000  0.95628000  0.95628000  1
  Cu  Cu4  1  0.58487000  0.04372000  0.04372000  1
  Cu  Cu5  1  0.58487000  0.04372000  0.45628000  1
  Cu  Cu6  1  0.58487000  0.45628000  0.04372000  1
  Cu  Cu7  1  0.58487000  0.45628000  0.45628000  1
  Si  Si8  1  0.00000000  0.25000000  0.75000000  1
  Si  Si9  1  0.00000000  0.75000000  0.25000000  1
  H  H10  1  0.13990000  0.13520000  0.65170000  1
  H  H11  1  0.13990000  0.13520000  0.84830000  1
  H  H12  1  0.13990000  0.36480000  0.65170000  1
  H  H13  1  0.13990000  0.36480000  0.84830000  1
  H  H14  1  0.13990000  0.65170000  0.13520000  1
  H  H15  1  0.13990000  0.65170000  0.36480000  1
  H  H16  1  0.13990000  0.84830000  0.13520000  1
  H  H17  1  0.13990000  0.84830000  0.36480000  1
  H  H18  1  0.38960000  0.25000000  0.50220000  1
  H  H19  1  0.38960000  0.25000000  0.99780000  1
  H  H20  1  0.38960000  0.50220000  0.25000000  1
  H  H21  1  0.38960000  0.99780000  0.25000000  1
  H  H22  1  0.61040000  0.00220000  0.75000000  1
  H  H23  1  0.61040000  0.49780000  0.75000000  1
  H  H24  1  0.61040000  0.75000000  0.00220000  1
  H  H25  1  0.61040000  0.75000000  0.49780000  1
  H  H26  1  0.86010000  0.15170000  0.63520000  1
  H  H27  1  0.86010000  0.15170000  0.86480000  1
  H  H28  1  0.86010000  0.34830000  0.63520000  1
  H  H29  1  0.86010000  0.34830000  0.86480000  1
  H  H30  1  0.86010000  0.63520000  0.15170000  1
  H  H31  1  0.86010000  0.63520000  0.34830000  1
  H  H32  1  0.86010000  0.86480000  0.15170000  1
  H  H33  1  0.86010000  0.86480000  0.34830000  1
  C  C34  1  0.12050000  0.25000000  0.66250000  1
  C  C35  1  0.12050000  0.25000000  0.83750000  1
  C  C36  1  0.12050000  0.66250000  0.25000000  1
  C  C37  1  0.12050000  0.83750000  0.25000000  1
  C  C38  1  0.17310000  0.18145000  0.63190000  1
  C  C39  1  0.17310000  0.18145000  0.86810000  1
  C  C40  1  0.17310000  0.31855000  0.63190000  1
  C  C41  1  0.17310000  0.31855000  0.86810000  1
  C  C42  1  0.17310000  0.63190000  0.18145000  1
  C  C43  1  0.17310000  0.63190000  0.31855000  1
  C  C44  1  0.17310000  0.86810000  0.18145000  1
  C  C45  1  0.17310000  0.86810000  0.31855000  1
  C  C46  1  0.27480000  0.18130000  0.57230000  1
  C  C47  1  0.27480000  0.18130000  0.92770000  1
  C  C48  1  0.27480000  0.31870000  0.57230000  1
  C  C49  1  0.27480000  0.31870000  0.92770000  1
  C  C50  1  0.27480000  0.57230000  0.18130000  1
  C  C51  1  0.27480000  0.57230000  0.31870000  1
  C  C52  1  0.27480000  0.92770000  0.18130000  1
  C  C53  1  0.27480000  0.92770000  0.31870000  1
  C  C54  1  0.32330000  0.25000000  0.54270000  1
  C  C55  1  0.32330000  0.25000000  0.95730000  1
  C  C56  1  0.32330000  0.54270000  0.25000000  1
  C  C57  1  0.32330000  0.95730000  0.25000000  1
  C  C58  1  0.34120000  0.10950000  0.54160000  1
  C  C59  1  0.34120000  0.10950000  0.95840000  1
  C  C60  1  0.34120000  0.39050000  0.54160000  1
  C  C61  1  0.34120000  0.39050000  0.95840000  1
  C  C62  1  0.34120000  0.54160000  0.10950000  1
  C  C63  1  0.34120000  0.54160000  0.39050000  1
  C  C64  1  0.34120000  0.95840000  0.10950000  1
  C  C65  1  0.34120000  0.95840000  0.39050000  1
  C  C66  1  0.65880000  0.04160000  0.60950000  1
  C  C67  1  0.65880000  0.04160000  0.89050000  1
  C  C68  1  0.65880000  0.45840000  0.60950000  1
  C  C69  1  0.65880000  0.45840000  0.89050000  1
  C  C70  1  0.65880000  0.60950000  0.04160000  1
  C  C71  1  0.65880000  0.60950000  0.45840000  1
  C  C72  1  0.65880000  0.89050000  0.04160000  1
  C  C73  1  0.65880000  0.89050000  0.45840000  1
  C  C74  1  0.67670000  0.04270000  0.75000000  1
  C  C75  1  0.67670000  0.45730000  0.75000000  1
  C  C76  1  0.67670000  0.75000000  0.04270000  1
  C  C77  1  0.67670000  0.75000000  0.45730000  1
  C  C78  1  0.72520000  0.07230000  0.68130000  1
  C  C79  1  0.72520000  0.07230000  0.81870000  1
  C  C80  1  0.72520000  0.42770000  0.68130000  1
  C  C81  1  0.72520000  0.42770000  0.81870000  1
  C  C82  1  0.72520000  0.68130000  0.07230000  1
  C  C83  1  0.72520000  0.68130000  0.42770000  1
  C  C84  1  0.72520000  0.81870000  0.07230000  1
  C  C85  1  0.72520000  0.81870000  0.42770000  1
  C  C86  1  0.82690000  0.13190000  0.68145000  1
  C  C87  1  0.82690000  0.13190000  0.81855000  1
  C  C88  1  0.82690000  0.36810000  0.68145000  1
  C  C89  1  0.82690000  0.36810000  0.81855000  1
  C  C90  1  0.82690000  0.68145000  0.13190000  1
  C  C91  1  0.82690000  0.68145000  0.36810000  1
  C  C92  1  0.82690000  0.81855000  0.13190000  1
  C  C93  1  0.82690000  0.81855000  0.36810000  1
  C  C94  1  0.87950000  0.16250000  0.75000000  1
  C  C95  1  0.87950000  0.33750000  0.75000000  1
  C  C96  1  0.87950000  0.75000000  0.16250000  1
  C  C97  1  0.87950000  0.75000000  0.33750000  1
  O  O98  1  0.29550000  0.04700000  0.56750000  1
  O  O99  1  0.29550000  0.04700000  0.93250000  1
  O  O100  1  0.29550000  0.45300000  0.56750000  1
  O  O101  1  0.29550000  0.45300000  0.93250000  1
  O  O102  1  0.29550000  0.56750000  0.04700000  1
  O  O103  1  0.29550000  0.56750000  0.45300000  1
  O  O104  1  0.29550000  0.93250000  0.04700000  1
  O  O105  1  0.29550000  0.93250000  0.45300000  1
  O  O106  1  0.44110000  0.00621000  0.11780000  1
  O  O107  1  0.44110000  0.00621000  0.38220000  1
  O  O108  1  0.44110000  0.11780000  0.00621000  1
  O  O109  1  0.44110000  0.11780000  0.49379000  1
  O  O110  1  0.44110000  0.38220000  0.00621000  1
  O  O111  1  0.44110000  0.38220000  0.49379000  1
  O  O112  1  0.44110000  0.49379000  0.11780000  1
  O  O113  1  0.44110000  0.49379000  0.38220000  1
  O  O114  1  0.55890000  0.50621000  0.61780000  1
  O  O115  1  0.55890000  0.50621000  0.88220000  1
  O  O116  1  0.55890000  0.61780000  0.50621000  1
  O  O117  1  0.55890000  0.61780000  0.99379000  1
  O  O118  1  0.55890000  0.88220000  0.50621000  1
  O  O119  1  0.55890000  0.88220000  0.99379000  1
  O  O120  1  0.55890000  0.99379000  0.61780000  1
  O  O121  1  0.55890000  0.99379000  0.88220000  1
  O  O122  1  0.70450000  0.06750000  0.54700000  1
  O  O123  1  0.70450000  0.06750000  0.95300000  1
  O  O124  1  0.70450000  0.43250000  0.54700000  1
  O  O125  1  0.70450000  0.43250000  0.95300000  1
  O  O126  1  0.70450000  0.54700000  0.06750000  1
  O  O127  1  0.70450000  0.54700000  0.43250000  1
  O  O128  1  0.70450000  0.95300000  0.06750000  1
  O  O129  1  0.70450000  0.95300000  0.43250000  1
