# generated using pymatgen
data_Ni3H40C55(NO3)5
_symmetry_space_group_name_H-M   'P 1'
_cell_length_a   13.14400000
_cell_length_b   16.13950000
_cell_length_c   17.36530000
_cell_angle_alpha   112.25800000
_cell_angle_beta   104.01300000
_cell_angle_gamma   96.65000000
_symmetry_Int_Tables_number   1
_chemical_formula_structural   Ni3H40C55(NO3)5
_chemical_formula_sum   'Ni6 H80 C110 N10 O30'
_cell_volume   3218.33221210
_cell_formula_units_Z   2
loop_
 _symmetry_equiv_pos_site_id
 _symmetry_equiv_pos_as_xyz
  1  'x, y, z'
loop_
 _atom_site_type_symbol
 _atom_site_label
 _atom_site_symmetry_multiplicity
 _atom_site_fract_x
 _atom_site_fract_y
 _atom_site_fract_z
 _atom_site_occupancy
  Ni  Ni0  1  0.08070000  0.72805000  0.69821000  1
  Ni  Ni1  1  0.12297000  0.27285000  0.22965000  1
  Ni  Ni2  1  0.32717000  0.72733000  0.32222000  1
  Ni  Ni3  1  0.67283000  0.27267000  0.67778000  1
  Ni  Ni4  1  0.87703000  0.72715000  0.77035000  1
  Ni  Ni5  1  0.91930000  0.27195000  0.30179000  1
  H  H6  1  0.02130000  0.53260000  0.42140000  1
  H  H7  1  0.02560000  0.15950000  0.26830000  1
  H  H8  1  0.06130000  0.94390000  0.02520000  1
  H  H9  1  0.09380000  0.23140000  0.35330000  1
  H  H10  1  0.11280000  0.41320000  0.89450000  1
  H  H11  1  0.12630000  0.28840000  0.14330000  1
  H  H12  1  0.13240000  0.79130000  0.56250000  1
  H  H13  1  0.14730000  0.64770000  0.86260000  1
  H  H14  1  0.15470000  0.58070000  0.57140000  1
  H  H15  1  0.15570000  0.37330000  0.15480000  1
  H  H16  1  0.15590000  0.49770000  0.04350000  1
  H  H17  1  0.17360000  0.30450000  0.62280000  1
  H  H18  1  0.18130000  0.72840000  0.00950000  1
  H  H19  1  0.19960000  0.37790000  0.76890000  1
  H  H20  1  0.20000000  0.80790000  0.27760000  1
  H  H21  1  0.20730000  0.46750000  0.37220000  1
  H  H22  1  0.21660000  0.92140000  0.81410000  1
  H  H23  1  0.23750000  0.90740000  0.55340000  1
  H  H24  1  0.27130000  0.48750000  0.56500000  1
  H  H25  1  0.28390000  0.81920000  0.36720000  1
  H  H26  1  0.30010000  0.73140000  0.81740000  1
  H  H27  1  0.30550000  0.03930000  0.29760000  1
  H  H28  1  0.31420000  0.86320000  0.95410000  1
  H  H29  1  0.32090000  0.52160000  0.21860000  1
  H  H30  1  0.32640000  0.03970000  0.81480000  1
  H  H31  1  0.33790000  0.37720000  0.58970000  1
  H  H32  1  0.34700000  0.26280000  0.31760000  1
  H  H33  1  0.36180000  0.56360000  0.47510000  1
  H  H34  1  0.37990000  0.77140000  0.66880000  1
  H  H35  1  0.39680000  0.16390000  0.79780000  1
  H  H36  1  0.39940000  0.97950000  0.56700000  1
  H  H37  1  0.42590000  0.12360000  0.43340000  1
  H  H38  1  0.42620000  0.64640000  0.81890000  1
  H  H39  1  0.42760000  0.96340000  0.09000000  1
  H  H40  1  0.42820000  0.41820000  0.21090000  1
  H  H41  1  0.45260000  0.28320000  0.58700000  1
  H  H42  1  0.46550000  0.91360000  0.42950000  1
  H  H43  1  0.47140000  0.73660000  0.20810000  1
  H  H44  1  0.49760000  0.64620000  0.57530000  1
  H  H45  1  0.49790000  0.86170000  0.80820000  1
  H  H46  1  0.50210000  0.13830000  0.19180000  1
  H  H47  1  0.50240000  0.35380000  0.42470000  1
  H  H48  1  0.52860000  0.26340000  0.79190000  1
  H  H49  1  0.53450000  0.08640000  0.57050000  1
  H  H50  1  0.54740000  0.71680000  0.41300000  1
  H  H51  1  0.57180000  0.58180000  0.78910000  1
  H  H52  1  0.57240000  0.03660000  0.91000000  1
  H  H53  1  0.57380000  0.35360000  0.18110000  1
  H  H54  1  0.57410000  0.87640000  0.56660000  1
  H  H55  1  0.60060000  0.02050000  0.43300000  1
  H  H56  1  0.60320000  0.83610000  0.20220000  1
  H  H57  1  0.62010000  0.22860000  0.33120000  1
  H  H58  1  0.63820000  0.43640000  0.52490000  1
  H  H59  1  0.65300000  0.73720000  0.68240000  1
  H  H60  1  0.66210000  0.62280000  0.41030000  1
  H  H61  1  0.67360000  0.96030000  0.18520000  1
  H  H62  1  0.67910000  0.47840000  0.78140000  1
  H  H63  1  0.68580000  0.13680000  0.04590000  1
  H  H64  1  0.69450000  0.96070000  0.70240000  1
  H  H65  1  0.69990000  0.26860000  0.18260000  1
  H  H66  1  0.71610000  0.18080000  0.63280000  1
  H  H67  1  0.72870000  0.51250000  0.43500000  1
  H  H68  1  0.76250000  0.09260000  0.44660000  1
  H  H69  1  0.78340000  0.07860000  0.18590000  1
  H  H70  1  0.79270000  0.53250000  0.62780000  1
  H  H71  1  0.80000000  0.19210000  0.72240000  1
  H  H72  1  0.80040000  0.62210000  0.23110000  1
  H  H73  1  0.81870000  0.27160000  0.99050000  1
  H  H74  1  0.82640000  0.69550000  0.37720000  1
  H  H75  1  0.84410000  0.50230000  0.95650000  1
  H  H76  1  0.84430000  0.62670000  0.84520000  1
  H  H77  1  0.84530000  0.41930000  0.42860000  1
  H  H78  1  0.85270000  0.35230000  0.13740000  1
  H  H79  1  0.86760000  0.20870000  0.43750000  1
  H  H80  1  0.87370000  0.71160000  0.85670000  1
  H  H81  1  0.88720000  0.58680000  0.10550000  1
  H  H82  1  0.90620000  0.76860000  0.64670000  1
  H  H83  1  0.93870000  0.05610000  0.97480000  1
  H  H84  1  0.97440000  0.84050000  0.73170000  1
  H  H85  1  0.97870000  0.46740000  0.57860000  1
  C  C86  1  0.02230000  0.44890000  0.61690000  1
  C  C87  1  0.03240000  0.44250000  0.26270000  1
  C  C88  1  0.03670000  0.49170000  0.70550000  1
  C  C89  1  0.06160000  0.33110000  0.48780000  1
  C  C90  1  0.07350000  0.37730000  0.58460000  1
  C  C91  1  0.10100000  0.82430000  0.88800000  1
  C  C92  1  0.10600000  0.46790000  0.76560000  1
  C  C93  1  0.12860000  0.51960000  0.86080000  1
  C  C94  1  0.12890000  0.47710000  0.91740000  1
  C  C95  1  0.13520000  0.94860000  0.03750000  1
  C  C96  1  0.13960000  0.35200000  0.64340000  1
  C  C97  1  0.14830000  0.61640000  0.89800000  1
  C  C98  1  0.15270000  0.52770000  0.00690000  1
  C  C99  1  0.15490000  0.39620000  0.73100000  1
  C  C100  1  0.15880000  0.08640000  0.17520000  1
  C  C101  1  0.16890000  0.66460000  0.98640000  1
  C  C102  1  0.17190000  0.62330000  0.04210000  1
  C  C103  1  0.17320000  0.84150000  0.61420000  1
  C  C104  1  0.17440000  0.89140000  0.97550000  1
  C  C105  1  0.20070000  0.68180000  0.13850000  1
  C  C106  1  0.20510000  0.01350000  0.11850000  1
  C  C107  1  0.20800000  0.59210000  0.62280000  1
  C  C108  1  0.22300000  0.91760000  0.76070000  1
  C  C109  1  0.23650000  0.91100000  0.60800000  1
  C  C110  1  0.26790000  0.44380000  0.38210000  1
  C  C111  1  0.27920000  0.53650000  0.61790000  1
  C  C112  1  0.28590000  0.89930000  0.99580000  1
  C  C113  1  0.28870000  0.98940000  0.76230000  1
  C  C114  1  0.29350000  0.68050000  0.76620000  1
  C  C115  1  0.29860000  0.98620000  0.68300000  1
  C  C116  1  0.31580000  0.01720000  0.14120000  1
  C  C117  1  0.34860000  0.32400000  0.35050000  1
  C  C118  1  0.35400000  0.96030000  0.07730000  1
  C  C119  1  0.36030000  0.50170000  0.44530000  1
  C  C120  1  0.36440000  0.55370000  0.69280000  1
  C  C121  1  0.36950000  0.07580000  0.30340000  1
  C  C122  1  0.37010000  0.62970000  0.76760000  1
  C  C123  1  0.37980000  0.05800000  0.68190000  1
  C  C124  1  0.38130000  0.76520000  0.51480000  1
  C  C125  1  0.38950000  0.07750000  0.22880000  1
  C  C126  1  0.39040000  0.54190000  0.25770000  1
  C  C127  1  0.40700000  0.40010000  0.62960000  1
  C  C128  1  0.42270000  0.14570000  0.75000000  1
  C  C129  1  0.42430000  0.03700000  0.61430000  1
  C  C130  1  0.43880000  0.49160000  0.69000000  1
  C  C131  1  0.44150000  0.12660000  0.38490000  1
  C  C132  1  0.44210000  0.81140000  0.67600000  1
  C  C133  1  0.44280000  0.37870000  0.41480000  1
  C  C134  1  0.44960000  0.47020000  0.46490000  1
  C  C135  1  0.45470000  0.47900000  0.25210000  1
  C  C136  1  0.46260000  0.81750000  0.60340000  1
  C  C137  1  0.47640000  0.34400000  0.62870000  1
  C  C138  1  0.48620000  0.13550000  0.24030000  1
  C  C139  1  0.49330000  0.89800000  0.38280000  1
  C  C140  1  0.49680000  0.79520000  0.25370000  1
  C  C141  1  0.50320000  0.20480000  0.74630000  1
  C  C142  1  0.50670000  0.10200000  0.61720000  1
  C  C143  1  0.51380000  0.86450000  0.75970000  1
  C  C144  1  0.52360000  0.65600000  0.37130000  1
  C  C145  1  0.53740000  0.18250000  0.39660000  1
  C  C146  1  0.54530000  0.52100000  0.74790000  1
  C  C147  1  0.55040000  0.52980000  0.53510000  1
  C  C148  1  0.55720000  0.62130000  0.58520000  1
  C  C149  1  0.55790000  0.18860000  0.32400000  1
  C  C150  1  0.55850000  0.87340000  0.61510000  1
  C  C151  1  0.56120000  0.50840000  0.31000000  1
  C  C152  1  0.57570000  0.96300000  0.38570000  1
  C  C153  1  0.57730000  0.85430000  0.25000000  1
  C  C154  1  0.59300000  0.59990000  0.37040000  1
  C  C155  1  0.60960000  0.45810000  0.74230000  1
  C  C156  1  0.61050000  0.92250000  0.77120000  1
  C  C157  1  0.61870000  0.23480000  0.48520000  1
  C  C158  1  0.62020000  0.94200000  0.31810000  1
  C  C159  1  0.62990000  0.37030000  0.23240000  1
  C  C160  1  0.63050000  0.92420000  0.69660000  1
  C  C161  1  0.63560000  0.44630000  0.30720000  1
  C  C162  1  0.63970000  0.49830000  0.55470000  1
  C  C163  1  0.64600000  0.03970000  0.92270000  1
  C  C164  1  0.65140000  0.67600000  0.64950000  1
  C  C165  1  0.68420000  0.98280000  0.85880000  1
  C  C166  1  0.70140000  0.01380000  0.31700000  1
  C  C167  1  0.70650000  0.31950000  0.23380000  1
  C  C168  1  0.71130000  0.01060000  0.23770000  1
  C  C169  1  0.71410000  0.10070000  0.00420000  1
  C  C170  1  0.72080000  0.46350000  0.38210000  1
  C  C171  1  0.73210000  0.55620000  0.61790000  1
  C  C172  1  0.76350000  0.08900000  0.39200000  1
  C  C173  1  0.77700000  0.08240000  0.23930000  1
  C  C174  1  0.79200000  0.40790000  0.37720000  1
  C  C175  1  0.79490000  0.98650000  0.88150000  1
  C  C176  1  0.79930000  0.31820000  0.86150000  1
  C  C177  1  0.82560000  0.10860000  0.02450000  1
  C  C178  1  0.82680000  0.15850000  0.38580000  1
  C  C179  1  0.82810000  0.37670000  0.95790000  1
  C  C180  1  0.83110000  0.33540000  0.01360000  1
  C  C181  1  0.84120000  0.91360000  0.82480000  1
  C  C182  1  0.84510000  0.60380000  0.26900000  1
  C  C183  1  0.84730000  0.47230000  0.99310000  1
  C  C184  1  0.85170000  0.38360000  0.10200000  1
  C  C185  1  0.86040000  0.64800000  0.35660000  1
  C  C186  1  0.86480000  0.05140000  0.96250000  1
  C  C187  1  0.87110000  0.52290000  0.08260000  1
  C  C188  1  0.87140000  0.48040000  0.13920000  1
  C  C189  1  0.89400000  0.53210000  0.23440000  1
  C  C190  1  0.89900000  0.17570000  0.11200000  1
  C  C191  1  0.92650000  0.62270000  0.41540000  1
  C  C192  1  0.93840000  0.66890000  0.51220000  1
  C  C193  1  0.96330000  0.50830000  0.29450000  1
  C  C194  1  0.96760000  0.55750000  0.73730000  1
  C  C195  1  0.97770000  0.55110000  0.38310000  1
  N  N196  1  0.16630000  0.84150000  0.68910000  1
  N  N197  1  0.20930000  0.66080000  0.69520000  1
  N  N198  1  0.26010000  0.35400000  0.33320000  1
  N  N199  1  0.42180000  0.62940000  0.31540000  1
  N  N200  1  0.45280000  0.81590000  0.31760000  1
  N  N201  1  0.54720000  0.18410000  0.68240000  1
  N  N202  1  0.57820000  0.37060000  0.68460000  1
  N  N203  1  0.73990000  0.64600000  0.66680000  1
  N  N204  1  0.79070000  0.33920000  0.30480000  1
  N  N205  1  0.83370000  0.15850000  0.31090000  1
  O  O206  1  0.00260000  0.80710000  0.87970000  1
  O  O207  1  0.01430000  0.65610000  0.56430000  1
  O  O208  1  0.02870000  0.36990000  0.27540000  1
  O  O209  1  0.05460000  0.21660000  0.29990000  1
  O  O210  1  0.08410000  0.05970000  0.20170000  1
  O  O211  1  0.09770000  0.46840000  0.23030000  1
  O  O212  1  0.12660000  0.28310000  0.46610000  1
  O  O213  1  0.14390000  0.79190000  0.82890000  1
  O  O214  1  0.16760000  0.75250000  0.16130000  1
  O  O215  1  0.18130000  0.32900000  0.15360000  1
  O  O216  1  0.19790000  0.16770000  0.19110000  1
  O  O217  1  0.23970000  0.83130000  0.33060000  1
  O  O218  1  0.26170000  0.65810000  0.18980000  1
  O  O219  1  0.30740000  0.70070000  0.50300000  1
  O  O220  1  0.39290000  0.79050000  0.45610000  1
  O  O221  1  0.60710000  0.20950000  0.54390000  1
  O  O222  1  0.69260000  0.29930000  0.49700000  1
  O  O223  1  0.73830000  0.34190000  0.81020000  1
  O  O224  1  0.76030000  0.16870000  0.66940000  1
  O  O225  1  0.80210000  0.83230000  0.80890000  1
  O  O226  1  0.81870000  0.67100000  0.84640000  1
  O  O227  1  0.83240000  0.24750000  0.83870000  1
  O  O228  1  0.85610000  0.20810000  0.17110000  1
  O  O229  1  0.87340000  0.71690000  0.53390000  1
  O  O230  1  0.90230000  0.53160000  0.76970000  1
  O  O231  1  0.91590000  0.94030000  0.79830000  1
  O  O232  1  0.94540000  0.78340000  0.70010000  1
  O  O233  1  0.97130000  0.63010000  0.72460000  1
  O  O234  1  0.98570000  0.34390000  0.43570000  1
  O  O235  1  0.99740000  0.19290000  0.12030000  1
