# generated using pymatgen
data_Zn5P5HO20
_symmetry_space_group_name_H-M   'P 1'
_cell_length_a   9.29940000
_cell_length_b   9.75100000
_cell_length_c   14.33480000
_cell_angle_alpha   90.00000000
_cell_angle_beta   90.97400000
_cell_angle_gamma   90.00000000
_symmetry_Int_Tables_number   1
_chemical_formula_structural   Zn5P5HO20
_chemical_formula_sum   'Zn10 P10 H2 O40'
_cell_volume   1299.66962248
_cell_formula_units_Z   2
loop_
 _symmetry_equiv_pos_site_id
 _symmetry_equiv_pos_as_xyz
  1  'x, y, z'
loop_
 _atom_site_type_symbol
 _atom_site_label
 _atom_site_symmetry_multiplicity
 _atom_site_fract_x
 _atom_site_fract_y
 _atom_site_fract_z
 _atom_site_occupancy
  Zn  Zn0  1  0.07060000  0.61350000  0.75440000  1
  Zn  Zn1  1  0.07700000  0.23960000  0.77300000  1
  Zn  Zn2  1  0.22840000  0.37690000  0.37550000  1
  Zn  Zn3  1  0.24370000  0.40400000  0.13000000  1
  Zn  Zn4  1  0.46770000  0.38530000  0.73270000  1
  Zn  Zn5  1  0.53230000  0.88530000  0.26730000  1
  Zn  Zn6  1  0.75630000  0.90400000  0.87000000  1
  Zn  Zn7  1  0.77160000  0.87690000  0.62450000  1
  Zn  Zn8  1  0.92300000  0.73960000  0.22700000  1
  Zn  Zn9  1  0.92940000  0.11350000  0.24560000  1
  P  P10  1  0.04440000  0.92890000  0.76220000  1
  P  P11  1  0.20460000  0.42620000  0.60650000  1
  P  P12  1  0.24380000  0.41650000  0.90140000  1
  P  P13  1  0.26460000  0.12200000  0.24230000  1
  P  P14  1  0.44440000  0.56280000  0.27250000  1
  P  P15  1  0.55560000  0.06280000  0.72750000  1
  P  P16  1  0.73540000  0.62200000  0.75770000  1
  P  P17  1  0.75620000  0.91650000  0.09860000  1
  P  P18  1  0.79540000  0.92620000  0.39350000  1
  P  P19  1  0.95560000  0.42890000  0.23780000  1
  H  H20  1  0.43640000  0.92320000  0.79810000  1
  H  H21  1  0.56360000  0.42320000  0.20190000  1
  O  O22  1  0.03770000  0.40740000  0.14670000  1
  O  O23  1  0.05820000  0.46080000  0.31930000  1
  O  O24  1  0.10100000  0.54430000  0.63000000  1
  O  O25  1  0.11780000  0.31350000  0.89570000  1
  O  O26  1  0.11960000  0.06990000  0.20300000  1
  O  O27  1  0.13690000  0.80250000  0.74210000  1
  O  O28  1  0.14710000  0.05110000  0.77500000  1
  O  O29  1  0.16870000  0.29870000  0.66370000  1
  O  O30  1  0.18340000  0.38830000  0.50450000  1
  O  O31  1  0.19400000  0.55400000  0.85750000  1
  O  O32  1  0.24160000  0.18570000  0.33780000  1
  O  O33  1  0.28630000  0.44010000  0.00260000  1
  O  O34  1  0.32380000  0.22920000  0.17400000  1
  O  O35  1  0.32420000  0.56180000  0.19940000  1
  O  O36  1  0.36110000  0.46990000  0.62910000  1
  O  O37  1  0.36450000  0.00120000  0.24830000  1
  O  O38  1  0.37180000  0.36060000  0.84940000  1
  O  O39  1  0.41230000  0.46290000  0.35180000  1
  O  O40  1  0.41800000  0.00240000  0.77810000  1
  O  O41  1  0.47550000  0.70450000  0.30870000  1
  O  O42  1  0.52450000  0.20450000  0.69130000  1
  O  O43  1  0.58200000  0.50240000  0.22190000  1
  O  O44  1  0.58770000  0.96290000  0.64820000  1
  O  O45  1  0.62820000  0.86060000  0.15060000  1
  O  O46  1  0.63550000  0.50120000  0.75170000  1
  O  O47  1  0.63890000  0.96990000  0.37090000  1
  O  O48  1  0.67580000  0.06180000  0.80060000  1
  O  O49  1  0.67620000  0.72920000  0.82600000  1
  O  O50  1  0.71370000  0.94010000  0.99740000  1
  O  O51  1  0.75840000  0.68570000  0.66220000  1
  O  O52  1  0.80600000  0.05400000  0.14250000  1
  O  O53  1  0.81660000  0.88830000  0.49550000  1
  O  O54  1  0.83130000  0.79870000  0.33630000  1
  O  O55  1  0.85290000  0.55110000  0.22500000  1
  O  O56  1  0.86310000  0.30250000  0.25790000  1
  O  O57  1  0.88040000  0.56990000  0.79700000  1
  O  O58  1  0.88220000  0.81350000  0.10430000  1
  O  O59  1  0.89900000  0.04430000  0.37000000  1
  O  O60  1  0.94180000  0.96080000  0.68070000  1
  O  O61  1  0.96230000  0.90740000  0.85330000  1
