# generated using pymatgen
data_CuH12C19NO4
_symmetry_space_group_name_H-M   'P 1'
_cell_length_a   13.94100000
_cell_length_b   15.07500000
_cell_length_c   15.07500000
_cell_angle_alpha   82.15000000
_cell_angle_beta   87.23000000
_cell_angle_gamma   87.23000000
_symmetry_Int_Tables_number   1
_chemical_formula_structural   CuH12C19NO4
_chemical_formula_sum   'Cu4 H48 C76 N4 O16'
_cell_volume   3132.02614765
_cell_formula_units_Z   4
loop_
 _symmetry_equiv_pos_site_id
 _symmetry_equiv_pos_as_xyz
  1  'x, y, z'
loop_
 _atom_site_type_symbol
 _atom_site_label
 _atom_site_symmetry_multiplicity
 _atom_site_fract_x
 _atom_site_fract_y
 _atom_site_fract_z
 _atom_site_occupancy
  Cu  Cu0  1  0.20602000  0.84066000  0.61730000  1
  Cu  Cu1  1  0.39503000  0.83486000  0.61007000  1
  Cu  Cu2  1  0.60497000  0.16514000  0.38993000  1
  Cu  Cu3  1  0.79398000  0.15934000  0.38270000  1
  H  H4  1  0.03510000  0.94430000  0.53320000  1
  H  H5  1  0.04150000  0.72420000  0.70220000  1
  H  H6  1  0.12340000  0.28090000  0.28840000  1
  H  H7  1  0.13270000  0.04930000  0.46230000  1
  H  H8  1  0.15500000  0.89340000  0.04770000  1
  H  H9  1  0.15550000  0.88790000  0.89100000  1
  H  H10  1  0.15980000  0.12170000  0.65670000  1
  H  H11  1  0.16050000  0.88070000  0.33320000  1
  H  H12  1  0.16350000  0.89130000  0.17370000  1
  H  H13  1  0.16380000  0.27600000  0.65900000  1
  H  H14  1  0.17200000  0.39890000  0.67750000  1
  H  H15  1  0.17470000  0.55400000  0.68630000  1
  H  H16  1  0.26800000  0.30050000  0.33700000  1
  H  H17  1  0.27750000  0.03000000  0.40880000  1
  H  H18  1  0.42480000  0.41240000  0.53220000  1
  H  H19  1  0.42630000  0.75660000  0.89890000  1
  H  H20  1  0.42670000  0.77120000  0.05020000  1
  H  H21  1  0.42940000  0.29610000  0.34550000  1
  H  H22  1  0.43110000  0.56060000  0.54920000  1
  H  H23  1  0.43550000  0.81000000  0.32640000  1
  H  H24  1  0.43690000  0.79190000  0.18650000  1
  H  H25  1  0.44080000  0.03720000  0.40820000  1
  H  H26  1  0.44710000  0.26880000  0.56510000  1
  H  H27  1  0.44970000  0.11470000  0.56660000  1
  H  H28  1  0.55030000  0.88530000  0.43340000  1
  H  H29  1  0.55290000  0.73120000  0.43490000  1
  H  H30  1  0.55920000  0.96280000  0.59180000  1
  H  H31  1  0.56310000  0.20810000  0.81350000  1
  H  H32  1  0.56450000  0.19000000  0.67360000  1
  H  H33  1  0.56890000  0.43940000  0.45080000  1
  H  H34  1  0.57060000  0.70390000  0.65450000  1
  H  H35  1  0.57330000  0.22880000  0.94980000  1
  H  H36  1  0.57370000  0.24340000  0.10110000  1
  H  H37  1  0.57520000  0.58760000  0.46780000  1
  H  H38  1  0.72250000  0.97000000  0.59120000  1
  H  H39  1  0.73200000  0.69950000  0.66300000  1
  H  H40  1  0.82530000  0.44600000  0.31370000  1
  H  H41  1  0.82800000  0.60110000  0.32250000  1
  H  H42  1  0.83620000  0.72400000  0.34100000  1
  H  H43  1  0.83650000  0.10870000  0.82630000  1
  H  H44  1  0.83950000  0.11930000  0.66680000  1
  H  H45  1  0.84020000  0.87830000  0.34330000  1
  H  H46  1  0.84450000  0.11210000  0.10900000  1
  H  H47  1  0.84500000  0.10660000  0.95230000  1
  H  H48  1  0.86730000  0.95070000  0.53770000  1
  H  H49  1  0.87660000  0.71910000  0.71160000  1
  H  H50  1  0.95850000  0.27580000  0.29780000  1
  H  H51  1  0.96490000  0.05570000  0.46680000  1
  C  C52  1  0.00210000  0.89940000  0.57170000  1
  C  C53  1  0.00480000  0.77130000  0.66950000  1
  C  C54  1  0.09290000  0.23310000  0.32500000  1
  C  C55  1  0.09870000  0.09700000  0.42770000  1
  C  C56  1  0.14720000  0.16410000  0.37590000  1
  C  C57  1  0.20800000  0.86800000  0.01700000  1
  C  C58  1  0.20900000  0.86400000  0.92500000  1
  C  C59  1  0.21600000  0.15300000  0.63700000  1
  C  C60  1  0.21780000  0.86700000  0.20620000  1
  C  C61  1  0.21830000  0.86590000  0.30140000  1
  C  C62  1  0.21900000  0.24400000  0.63800000  1
  C  C63  1  0.22500000  0.43240000  0.65230000  1
  C  C64  1  0.22600000  0.52390000  0.65670000  1
  C  C65  1  0.25240000  0.16500000  0.37600000  1
  C  C66  1  0.29100000  0.82430000  0.88060000  1
  C  C67  1  0.29350000  0.83110000  0.06500000  1
  C  C68  1  0.29480000  0.82520000  0.78270000  1
  C  C69  1  0.29520000  0.83470000  0.16430000  1
  C  C70  1  0.29740000  0.84420000  0.34650000  1
  C  C71  1  0.29840000  0.84600000  0.44530000  1
  C  C72  1  0.29980000  0.00530000  0.60850000  1
  C  C73  1  0.30070000  0.10450000  0.60630000  1
  C  C74  1  0.30190000  0.24510000  0.35440000  1
  C  C75  1  0.30380000  0.28890000  0.60860000  1
  C  C76  1  0.30620000  0.38780000  0.60860000  1
  C  C77  1  0.30680000  0.08620000  0.39590000  1
  C  C78  1  0.30890000  0.66970000  0.61670000  1
  C  C79  1  0.30990000  0.57290000  0.61290000  1
  C  C80  1  0.37200000  0.79300000  0.01800000  1
  C  C81  1  0.37400000  0.78500000  0.92800000  1
  C  C82  1  0.37600000  0.43900000  0.56700000  1
  C  C83  1  0.37700000  0.52890000  0.57400000  1
  C  C84  1  0.37700000  0.82100000  0.29600000  1
  C  C85  1  0.37900000  0.81300000  0.21500000  1
  C  C86  1  0.39000000  0.23750000  0.58200000  1
  C  C87  1  0.39300000  0.14800000  0.58200000  1
  C  C88  1  0.39770000  0.24120000  0.35910000  1
  C  C89  1  0.40500000  0.09210000  0.39600000  1
  C  C90  1  0.59500000  0.90790000  0.60400000  1
  C  C91  1  0.60230000  0.75880000  0.64090000  1
  C  C92  1  0.60700000  0.85200000  0.41800000  1
  C  C93  1  0.61000000  0.76250000  0.41800000  1
  C  C94  1  0.62100000  0.18700000  0.78500000  1
  C  C95  1  0.62300000  0.17900000  0.70400000  1
  C  C96  1  0.62300000  0.47110000  0.42600000  1
  C  C97  1  0.62400000  0.56100000  0.43300000  1
  C  C98  1  0.62600000  0.21500000  0.07200000  1
  C  C99  1  0.62800000  0.20700000  0.98200000  1
  C  C100  1  0.69010000  0.42710000  0.38710000  1
  C  C101  1  0.69110000  0.33030000  0.38330000  1
  C  C102  1  0.69320000  0.91380000  0.60410000  1
  C  C103  1  0.69380000  0.61220000  0.39140000  1
  C  C104  1  0.69620000  0.71110000  0.39140000  1
  C  C105  1  0.69810000  0.75490000  0.64560000  1
  C  C106  1  0.69930000  0.89550000  0.39370000  1
  C  C107  1  0.70020000  0.99470000  0.39150000  1
  C  C108  1  0.70160000  0.15400000  0.55470000  1
  C  C109  1  0.70260000  0.15580000  0.65350000  1
  C  C110  1  0.70480000  0.16530000  0.83570000  1
  C  C111  1  0.70520000  0.17480000  0.21730000  1
  C  C112  1  0.70650000  0.16890000  0.93500000  1
  C  C113  1  0.70900000  0.17570000  0.11940000  1
  C  C114  1  0.74760000  0.83500000  0.62400000  1
  C  C115  1  0.77400000  0.47610000  0.34330000  1
  C  C116  1  0.77500000  0.56760000  0.34770000  1
  C  C117  1  0.78100000  0.75600000  0.36200000  1
  C  C118  1  0.78170000  0.13410000  0.69860000  1
  C  C119  1  0.78220000  0.13300000  0.79380000  1
  C  C120  1  0.78400000  0.84700000  0.36300000  1
  C  C121  1  0.79100000  0.13600000  0.07500000  1
  C  C122  1  0.79200000  0.13200000  0.98300000  1
  C  C123  1  0.85280000  0.83590000  0.62410000  1
  C  C124  1  0.90130000  0.90300000  0.57230000  1
  C  C125  1  0.90710000  0.76690000  0.67500000  1
  C  C126  1  0.99520000  0.22870000  0.33050000  1
  C  C127  1  0.99790000  0.10060000  0.42830000  1
  N  N128  1  0.05310000  0.83870000  0.62040000  1
  N  N129  1  0.45390000  0.16540000  0.38150000  1
  N  N130  1  0.54610000  0.83460000  0.61850000  1
  N  N131  1  0.94690000  0.16130000  0.37960000  1
  O  O132  1  0.21320000  0.83090000  0.74730000  1
  O  O133  1  0.21790000  0.97080000  0.61120000  1
  O  O134  1  0.21970000  0.85070000  0.48810000  1
  O  O135  1  0.22930000  0.70970000  0.62270000  1
  O  O136  1  0.37210000  0.82040000  0.74070000  1
  O  O137  1  0.37580000  0.96360000  0.60380000  1
  O  O138  1  0.37840000  0.84550000  0.48010000  1
  O  O139  1  0.38780000  0.70600000  0.61460000  1
  O  O140  1  0.61220000  0.29400000  0.38540000  1
  O  O141  1  0.62160000  0.15450000  0.51990000  1
  O  O142  1  0.62420000  0.03640000  0.39620000  1
  O  O143  1  0.62790000  0.17960000  0.25930000  1
  O  O144  1  0.77070000  0.29030000  0.37730000  1
  O  O145  1  0.78030000  0.14930000  0.51190000  1
  O  O146  1  0.78210000  0.02920000  0.38880000  1
  O  O147  1  0.78680000  0.16910000  0.25270000  1
