# generated using pymatgen
data_ZnH10C16NO4
_symmetry_space_group_name_H-M   'P 1'
_cell_length_a   10.89600000
_cell_length_b   19.69800000
_cell_length_c   21.55400000
_cell_angle_alpha   90.00000000
_cell_angle_beta   100.48000000
_cell_angle_gamma   90.00000000
_symmetry_Int_Tables_number   1
_chemical_formula_structural   ZnH10C16NO4
_chemical_formula_sum   'Zn8 H80 C128 N8 O32'
_cell_volume   4548.95141585
_cell_formula_units_Z   8
loop_
 _symmetry_equiv_pos_site_id
 _symmetry_equiv_pos_as_xyz
  1  'x, y, z'
loop_
 _atom_site_type_symbol
 _atom_site_label
 _atom_site_symmetry_multiplicity
 _atom_site_fract_x
 _atom_site_fract_y
 _atom_site_fract_z
 _atom_site_occupancy
  Zn  Zn0  1  0.31540000  0.05228000  0.26509000  1
  Zn  Zn1  1  0.31540000  0.44772000  0.76509000  1
  Zn  Zn2  1  0.35488000  0.55068000  0.86535000  1
  Zn  Zn3  1  0.35488000  0.94932000  0.36535000  1
  Zn  Zn4  1  0.64512000  0.05068000  0.63465000  1
  Zn  Zn5  1  0.64512000  0.44932000  0.13465000  1
  Zn  Zn6  1  0.68460000  0.55228000  0.23491000  1
  Zn  Zn7  1  0.68460000  0.94772000  0.73491000  1
  H  H8  1  0.02700000  0.07470000  0.62710000  1
  H  H9  1  0.02700000  0.42530000  0.12710000  1
  H  H10  1  0.09180000  0.57830000  0.25190000  1
  H  H11  1  0.09180000  0.92170000  0.75190000  1
  H  H12  1  0.19430000  0.06650000  0.12820000  1
  H  H13  1  0.19430000  0.43350000  0.62820000  1
  H  H14  1  0.20160000  0.13670000  0.04310000  1
  H  H15  1  0.20160000  0.36330000  0.54310000  1
  H  H16  1  0.23390000  0.07210000  0.61560000  1
  H  H17  1  0.23390000  0.42790000  0.11560000  1
  H  H18  1  0.23440000  0.59340000  0.61350000  1
  H  H19  1  0.23440000  0.90660000  0.11350000  1
  H  H20  1  0.23880000  0.67170000  0.53490000  1
  H  H21  1  0.23880000  0.82830000  0.03490000  1
  H  H22  1  0.30030000  0.57880000  0.24250000  1
  H  H23  1  0.30030000  0.92120000  0.74250000  1
  H  H24  1  0.30250000  0.18480000  0.96500000  1
  H  H25  1  0.30250000  0.31520000  0.46500000  1
  H  H26  1  0.31140000  0.23630000  0.38610000  1
  H  H27  1  0.31140000  0.26370000  0.88610000  1
  H  H28  1  0.33340000  0.72600000  0.46690000  1
  H  H29  1  0.33340000  0.77400000  0.96690000  1
  H  H30  1  0.33860000  0.61780000  0.08690000  1
  H  H31  1  0.33860000  0.88220000  0.58690000  1
  H  H32  1  0.33990000  0.69770000  0.88810000  1
  H  H33  1  0.33990000  0.80230000  0.38810000  1
  H  H34  1  0.34920000  0.54540000  0.00490000  1
  H  H35  1  0.34920000  0.95460000  0.50490000  1
  H  H36  1  0.36160000  0.16600000  0.59430000  1
  H  H37  1  0.36160000  0.33400000  0.09430000  1
  H  H38  1  0.36380000  0.08730000  0.51520000  1
  H  H39  1  0.36380000  0.41270000  0.01520000  1
  H  H40  1  0.40540000  0.72730000  0.74060000  1
  H  H41  1  0.40540000  0.77270000  0.24060000  1
  H  H42  1  0.41330000  0.69560000  0.16030000  1
  H  H43  1  0.41330000  0.80440000  0.66030000  1
  H  H44  1  0.44860000  0.17320000  0.23470000  1
  H  H45  1  0.44860000  0.32680000  0.73470000  1
  H  H46  1  0.46040000  0.24590000  0.15370000  1
  H  H47  1  0.46040000  0.25410000  0.65370000  1
  H  H48  1  0.53960000  0.74590000  0.34630000  1
  H  H49  1  0.53960000  0.75410000  0.84630000  1
  H  H50  1  0.55140000  0.67320000  0.26530000  1
  H  H51  1  0.55140000  0.82680000  0.76530000  1
  H  H52  1  0.58670000  0.19560000  0.33970000  1
  H  H53  1  0.58670000  0.30440000  0.83970000  1
  H  H54  1  0.59460000  0.22730000  0.75940000  1
  H  H55  1  0.59460000  0.27270000  0.25940000  1
  H  H56  1  0.63620000  0.58730000  0.98480000  1
  H  H57  1  0.63620000  0.91270000  0.48480000  1
  H  H58  1  0.63840000  0.66600000  0.90570000  1
  H  H59  1  0.63840000  0.83400000  0.40570000  1
  H  H60  1  0.65080000  0.04540000  0.49510000  1
  H  H61  1  0.65080000  0.45460000  0.99510000  1
  H  H62  1  0.66010000  0.19770000  0.61190000  1
  H  H63  1  0.66010000  0.30230000  0.11190000  1
  H  H64  1  0.66140000  0.11780000  0.41310000  1
  H  H65  1  0.66140000  0.38220000  0.91310000  1
  H  H66  1  0.66666667  0.22600000  0.03310000  1
  H  H67  1  0.66666667  0.27400000  0.53310000  1
  H  H68  1  0.68860000  0.73630000  0.11390000  1
  H  H69  1  0.68860000  0.76370000  0.61390000  1
  H  H70  1  0.69750000  0.68480000  0.53500000  1
  H  H71  1  0.69750000  0.81520000  0.03500000  1
  H  H72  1  0.69970000  0.07880000  0.25750000  1
  H  H73  1  0.69970000  0.42120000  0.75750000  1
  H  H74  1  0.76120000  0.17170000  0.96510000  1
  H  H75  1  0.76120000  0.32830000  0.46510000  1
  H  H76  1  0.76560000  0.09340000  0.88650000  1
  H  H77  1  0.76560000  0.40660000  0.38650000  1
  H  H78  1  0.76610000  0.57210000  0.88440000  1
  H  H79  1  0.76610000  0.92790000  0.38440000  1
  H  H80  1  0.79840000  0.63670000  0.45690000  1
  H  H81  1  0.79840000  0.86330000  0.95690000  1
  H  H82  1  0.80570000  0.56650000  0.37180000  1
  H  H83  1  0.80570000  0.93350000  0.87180000  1
  H  H84  1  0.90820000  0.07830000  0.24810000  1
  H  H85  1  0.90820000  0.42170000  0.74810000  1
  H  H86  1  0.97300000  0.57470000  0.87290000  1
  H  H87  1  0.97300000  0.92530000  0.37290000  1
  C  C88  1  0.03820000  0.50190000  0.19030000  1
  C  C89  1  0.03820000  0.99810000  0.69030000  1
  C  C90  1  0.08150000  0.04360000  0.64990000  1
  C  C91  1  0.08150000  0.45640000  0.14990000  1
  C  C92  1  0.09790000  0.00200000  0.30510000  1
  C  C93  1  0.09790000  0.49800000  0.80510000  1
  C  C94  1  0.12050000  0.54780000  0.22490000  1
  C  C95  1  0.12050000  0.95220000  0.72490000  1
  C  C96  1  0.20570000  0.04250000  0.64350000  1
  C  C97  1  0.20570000  0.45750000  0.14350000  1
  C  C98  1  0.24540000  0.54810000  0.21920000  1
  C  C99  1  0.24540000  0.95190000  0.71920000  1
  C  C100  1  0.24790000  0.10370000  0.13360000  1
  C  C101  1  0.24790000  0.39630000  0.63360000  1
  C  C102  1  0.25060000  0.14610000  0.08220000  1
  C  C103  1  0.25060000  0.35390000  0.58220000  1
  C  C104  1  0.27220000  0.63540000  0.62320000  1
  C  C105  1  0.27220000  0.86460000  0.12320000  1
  C  C106  1  0.27520000  0.68250000  0.57620000  1
  C  C107  1  0.27520000  0.81750000  0.07620000  1
  C  C108  1  0.28850000  0.50280000  0.17880000  1
  C  C109  1  0.28850000  0.99720000  0.67880000  1
  C  C110  1  0.31540000  0.23040000  0.97520000  1
  C  C111  1  0.31540000  0.26960000  0.47520000  1
  C  C112  1  0.31980000  0.22220000  0.42790000  1
  C  C113  1  0.31980000  0.27780000  0.92790000  1
  C  C114  1  0.32650000  0.20170000  0.09001000  1
  C  C115  1  0.32650000  0.29830000  0.59001000  1
  C  C116  1  0.32650000  0.65110000  0.68576000  1
  C  C117  1  0.32650000  0.84890000  0.18576000  1
  C  C118  1  0.32770000  0.59830000  0.73704000  1
  C  C119  1  0.32770000  0.90170000  0.23704000  1
  C  C120  1  0.33020000  0.24880000  0.53794000  1
  C  C121  1  0.33020000  0.25120000  0.03794000  1
  C  C122  1  0.33100000  0.74560000  0.58870000  1
  C  C123  1  0.33100000  0.75440000  0.08870000  1
  C  C124  1  0.33490000  0.70520000  0.03720000  1
  C  C125  1  0.33490000  0.79480000  0.53720000  1
  C  C126  1  0.33590000  0.72780000  0.97580000  1
  C  C127  1  0.33590000  0.77220000  0.47580000  1
  C  C128  1  0.33690000  0.15320000  0.44290000  1
  C  C129  1  0.33690000  0.34680000  0.94290000  1
  C  C130  1  0.33950000  0.63530000  0.04690000  1
  C  C131  1  0.33950000  0.86470000  0.54690000  1
  C  C132  1  0.34050000  0.68160000  0.92870000  1
  C  C133  1  0.34050000  0.81840000  0.42870000  1
  C  C134  1  0.34160000  0.10140000  0.39209000  1
  C  C135  1  0.34160000  0.39860000  0.89209000  1
  C  C136  1  0.34540000  0.59190000  0.99722000  1
  C  C137  1  0.34540000  0.90810000  0.49722000  1
  C  C138  1  0.34990000  0.18020000  0.55246000  1
  C  C139  1  0.34990000  0.31980000  0.05246000  1
  C  C140  1  0.35200000  0.13300000  0.50504000  1
  C  C141  1  0.35200000  0.36700000  0.00504000  1
  C  C142  1  0.37480000  0.71500000  0.69900000  1
  C  C143  1  0.37480000  0.78500000  0.19900000  1
  C  C144  1  0.37840000  0.73830000  0.15060000  1
  C  C145  1  0.37840000  0.76170000  0.65060000  1
  C  C146  1  0.39640000  0.16620000  0.19600000  1
  C  C147  1  0.39640000  0.33380000  0.69600000  1
  C  C148  1  0.40360000  0.21020000  0.14760000  1
  C  C149  1  0.40360000  0.28980000  0.64760000  1
  C  C150  1  0.42520000  0.50160000  0.17471000  1
  C  C151  1  0.42520000  0.99840000  0.67471000  1
  C  C152  1  0.57480000  0.00160000  0.32529000  1
  C  C153  1  0.57480000  0.49840000  0.82529000  1
  C  C154  1  0.59640000  0.71020000  0.35240000  1
  C  C155  1  0.59640000  0.78980000  0.85240000  1
  C  C156  1  0.60360000  0.66620000  0.30400000  1
  C  C157  1  0.60360000  0.83380000  0.80400000  1
  C  C158  1  0.62160000  0.23830000  0.34940000  1
  C  C159  1  0.62160000  0.26170000  0.84940000  1
  C  C160  1  0.62520000  0.21500000  0.80100000  1
  C  C161  1  0.62520000  0.28500000  0.30100000  1
  C  C162  1  0.64800000  0.63300000  0.99496000  1
  C  C163  1  0.64800000  0.86700000  0.49496000  1
  C  C164  1  0.65010000  0.68020000  0.94754000  1
  C  C165  1  0.65010000  0.81980000  0.44754000  1
  C  C166  1  0.65460000  0.09190000  0.50278000  1
  C  C167  1  0.65460000  0.40810000  0.00278000  1
  C  C168  1  0.65840000  0.60140000  0.10791000  1
  C  C169  1  0.65840000  0.89860000  0.60791000  1
  C  C170  1  0.65950000  0.18160000  0.57130000  1
  C  C171  1  0.65950000  0.31840000  0.07130000  1
  C  C172  1  0.66050000  0.13530000  0.45310000  1
  C  C173  1  0.66050000  0.36470000  0.95310000  1
  C  C174  1  0.66310000  0.65320000  0.05710000  1
  C  C175  1  0.66310000  0.84680000  0.55710000  1
  C  C176  1  0.66410000  0.22780000  0.52420000  1
  C  C177  1  0.66410000  0.27220000  0.02420000  1
  C  C178  1  0.66510000  0.20520000  0.46280000  1
  C  C179  1  0.66510000  0.29480000  0.96280000  1
  C  C180  1  0.66900000  0.24560000  0.91130000  1
  C  C181  1  0.66900000  0.25440000  0.41130000  1
  C  C182  1  0.66980000  0.74880000  0.96206000  1
  C  C183  1  0.66980000  0.75120000  0.46206000  1
  C  C184  1  0.67230000  0.09830000  0.76296000  1
  C  C185  1  0.67230000  0.40170000  0.26296000  1
  C  C186  1  0.67350000  0.15110000  0.81424000  1
  C  C187  1  0.67350000  0.34890000  0.31424000  1
  C  C188  1  0.67350000  0.70170000  0.40999000  1
  C  C189  1  0.67350000  0.79830000  0.90999000  1
  C  C190  1  0.68020000  0.72220000  0.07210000  1
  C  C191  1  0.68020000  0.77780000  0.57210000  1
  C  C192  1  0.68460000  0.73040000  0.52480000  1
  C  C193  1  0.68460000  0.76960000  0.02480000  1
  C  C194  1  0.71150000  0.00280000  0.32120000  1
  C  C195  1  0.71150000  0.49720000  0.82120000  1
  C  C196  1  0.72480000  0.18250000  0.92380000  1
  C  C197  1  0.72480000  0.31750000  0.42380000  1
  C  C198  1  0.72780000  0.13540000  0.87680000  1
  C  C199  1  0.72780000  0.36460000  0.37680000  1
  C  C200  1  0.74940000  0.64610000  0.41780000  1
  C  C201  1  0.74940000  0.85390000  0.91780000  1
  C  C202  1  0.75210000  0.60370000  0.36640000  1
  C  C203  1  0.75210000  0.89630000  0.86640000  1
  C  C204  1  0.75460000  0.04810000  0.28080000  1
  C  C205  1  0.75460000  0.45190000  0.78080000  1
  C  C206  1  0.79430000  0.54250000  0.85650000  1
  C  C207  1  0.79430000  0.95750000  0.35650000  1
  C  C208  1  0.87950000  0.04780000  0.27510000  1
  C  C209  1  0.87950000  0.45220000  0.77510000  1
  C  C210  1  0.90210000  0.50200000  0.19490000  1
  C  C211  1  0.90210000  0.99800000  0.69490000  1
  C  C212  1  0.91850000  0.54360000  0.85010000  1
  C  C213  1  0.91850000  0.95640000  0.35010000  1
  C  C214  1  0.96180000  0.00190000  0.30970000  1
  C  C215  1  0.96180000  0.49810000  0.80970000  1
  N  N216  1  0.31790000  0.11370000  0.19005000  1
  N  N217  1  0.31790000  0.38630000  0.69005000  1
  N  N218  1  0.34580000  0.61397000  0.93840000  1
  N  N219  1  0.34580000  0.88603000  0.43840000  1
  N  N220  1  0.65420000  0.11397000  0.56160000  1
  N  N221  1  0.65420000  0.38603000  0.06160000  1
  N  N222  1  0.68210000  0.61370000  0.30995000  1
  N  N223  1  0.68210000  0.88630000  0.80995000  1
  O  O224  1  0.13450000  0.04788000  0.27181000  1
  O  O225  1  0.13450000  0.45212000  0.77181000  1
  O  O226  1  0.16490000  0.54250000  0.83560000  1
  O  O227  1  0.16490000  0.95750000  0.33560000  1
  O  O228  1  0.29820000  0.53893000  0.71864000  1
  O  O229  1  0.29820000  0.96107000  0.21864000  1
  O  O230  1  0.33860000  0.12196000  0.33673000  1
  O  O231  1  0.33860000  0.37804000  0.83673000  1
  O  O232  1  0.34700000  0.04065000  0.40898000  1
  O  O233  1  0.34700000  0.45935000  0.90898000  1
  O  O234  1  0.35890000  0.61717000  0.79297000  1
  O  O235  1  0.35890000  0.88283000  0.29297000  1
  O  O236  1  0.45920000  0.03475000  0.63288000  1
  O  O237  1  0.45920000  0.46525000  0.13288000  1
  O  O238  1  0.49730000  0.53670000  0.21462000  1
  O  O239  1  0.49730000  0.96330000  0.71462000  1
  O  O240  1  0.50270000  0.03670000  0.28538000  1
  O  O241  1  0.50270000  0.46330000  0.78538000  1
  O  O242  1  0.54080000  0.53475000  0.86712000  1
  O  O243  1  0.54080000  0.96525000  0.36712000  1
  O  O244  1  0.64110000  0.11717000  0.70703000  1
  O  O245  1  0.64110000  0.38283000  0.20703000  1
  O  O246  1  0.65300000  0.54065000  0.09102000  1
  O  O247  1  0.65300000  0.95935000  0.59102000  1
  O  O248  1  0.66140000  0.62196000  0.16327000  1
  O  O249  1  0.66140000  0.87804000  0.66327000  1
  O  O250  1  0.70180000  0.03893000  0.78136000  1
  O  O251  1  0.70180000  0.46107000  0.28136000  1
  O  O252  1  0.83510000  0.04250000  0.66440000  1
  O  O253  1  0.83510000  0.45750000  0.16440000  1
  O  O254  1  0.86550000  0.54788000  0.22819000  1
  O  O255  1  0.86550000  0.95212000  0.72819000  1
