# generated using pymatgen
data_Ce2U3H6(C5O4)6
_symmetry_space_group_name_H-M   'P 1'
_cell_length_a   10.94530000
_cell_length_b   11.48510000
_cell_length_c   13.45300000
_cell_angle_alpha   69.53900000
_cell_angle_beta   80.09500000
_cell_angle_gamma   62.42000000
_symmetry_Int_Tables_number   1
_chemical_formula_structural   Ce2U3H6(C5O4)6
_chemical_formula_sum   'Ce2 U3 H6 C30 O24'
_cell_volume   1404.29964662
_cell_formula_units_Z   1
loop_
 _symmetry_equiv_pos_site_id
 _symmetry_equiv_pos_as_xyz
  1  'x, y, z'
loop_
 _atom_site_type_symbol
 _atom_site_label
 _atom_site_symmetry_multiplicity
 _atom_site_fract_x
 _atom_site_fract_y
 _atom_site_fract_z
 _atom_site_occupancy
  Ce  Ce0  1  0.37801000  0.78602000  0.22487000  1
  Ce  Ce1  1  0.62199000  0.21398000  0.77513000  1
  U  U2  1  0.00000000  0.50000000  0.50000000  1
  U  U3  1  0.36734000  0.29822000  0.16648000  1
  U  U4  1  0.63266000  0.70178000  0.83352000  1
  H  H5  1  0.09970000  0.36110000  0.95150000  1
  H  H6  1  0.18330000  0.09870000  0.73290000  1
  H  H7  1  0.29840000  0.99740000  0.58140000  1
  H  H8  1  0.70160000  0.00260000  0.41860000  1
  H  H9  1  0.81670000  0.90130000  0.26710000  1
  H  H10  1  0.90030000  0.63890000  0.04850000  1
  C  C11  1  0.00830000  0.33590000  0.84580000  1
  C  C12  1  0.03260000  0.25680000  0.78060000  1
  C  C13  1  0.07890000  0.72510000  0.28290000  1
  C  C14  1  0.11800000  0.31120000  0.90490000  1
  C  C15  1  0.12730000  0.54530000  0.15130000  1
  C  C16  1  0.16710000  0.15530000  0.77370000  1
  C  C17  1  0.25100000  0.21510000  0.89520000  1
  C  C18  1  0.25780000  0.25530000  0.49220000  1
  C  C19  1  0.27800000  0.13670000  0.82670000  1
  C  C20  1  0.35590000  0.19850000  0.96220000  1
  C  C21  1  0.37990000  0.99890000  0.54850000  1
  C  C22  1  0.38190000  0.12570000  0.49640000  1
  C  C23  1  0.41910000  0.02780000  0.80900000  1
  C  C24  1  0.47960000  0.74470000  0.61640000  1
  C  C25  1  0.49460000  0.87360000  0.55340000  1
  C  C26  1  0.50540000  0.12640000  0.44660000  1
  C  C27  1  0.52040000  0.25530000  0.38360000  1
  C  C28  1  0.58090000  0.97220000  0.19100000  1
  C  C29  1  0.61810000  0.87430000  0.50360000  1
  C  C30  1  0.62010000  0.00110000  0.45150000  1
  C  C31  1  0.64410000  0.80150000  0.03780000  1
  C  C32  1  0.72200000  0.86330000  0.17330000  1
  C  C33  1  0.74220000  0.74470000  0.50780000  1
  C  C34  1  0.74900000  0.78490000  0.10480000  1
  C  C35  1  0.83290000  0.84470000  0.22630000  1
  C  C36  1  0.87270000  0.45470000  0.84870000  1
  C  C37  1  0.88200000  0.68880000  0.09510000  1
  C  C38  1  0.92110000  0.27490000  0.71710000  1
  C  C39  1  0.96740000  0.74320000  0.21940000  1
  C  C40  1  0.99170000  0.66410000  0.15420000  1
  O  O41  1  0.09910000  0.64470000  0.37740000  1
  O  O42  1  0.14130000  0.47130000  0.09490000  1
  O  O43  1  0.14360000  0.79410000  0.23880000  1
  O  O44  1  0.14370000  0.24870000  0.52140000  1
  O  O45  1  0.22470000  0.51580000  0.20560000  1
  O  O46  1  0.26090000  0.37030000  0.46610000  1
  O  O47  1  0.31180000  0.21460000  0.05380000  1
  O  O48  1  0.42830000  0.90810000  0.82750000  1
  O  O49  1  0.42880000  0.69820000  0.57040000  1
  O  O50  1  0.47510000  0.17410000  0.93150000  1
  O  O51  1  0.48450000  0.93950000  0.22510000  1
  O  O52  1  0.49140000  0.30860000  0.28720000  1
  O  O53  1  0.50860000  0.69140000  0.71280000  1
  O  O54  1  0.51550000  0.06050000  0.77490000  1
  O  O55  1  0.52490000  0.82590000  0.06850000  1
  O  O56  1  0.57120000  0.30180000  0.42960000  1
  O  O57  1  0.57170000  0.09190000  0.17250000  1
  O  O58  1  0.68820000  0.78540000  0.94620000  1
  O  O59  1  0.73910000  0.62970000  0.53390000  1
  O  O60  1  0.77530000  0.48420000  0.79440000  1
  O  O61  1  0.85630000  0.75130000  0.47860000  1
  O  O62  1  0.85640000  0.20590000  0.76120000  1
  O  O63  1  0.85870000  0.52870000  0.90510000  1
  O  O64  1  0.90090000  0.35530000  0.62260000  1
