# generated using pymatgen
data_ZnH8C11(N3O)2
_symmetry_space_group_name_H-M   'P 1'
_cell_length_a   9.05410000
_cell_length_b   10.44430000
_cell_length_c   18.20060000
_cell_angle_alpha   90.00000000
_cell_angle_beta   90.00000000
_cell_angle_gamma   90.00000000
_symmetry_Int_Tables_number   1
_chemical_formula_structural   ZnH8C11(N3O)2
_chemical_formula_sum   'Zn4 H32 C44 N24 O8'
_cell_volume   1721.11674491
_cell_formula_units_Z   4
loop_
 _symmetry_equiv_pos_site_id
 _symmetry_equiv_pos_as_xyz
  1  'x, y, z'
loop_
 _atom_site_type_symbol
 _atom_site_label
 _atom_site_symmetry_multiplicity
 _atom_site_fract_x
 _atom_site_fract_y
 _atom_site_fract_z
 _atom_site_occupancy
  Zn  Zn0  1  0.13211000  0.01884000  0.59969000  1
  Zn  Zn1  1  0.13211000  0.48116000  0.09969000  1
  Zn  Zn2  1  0.63211000  0.51884000  0.90031000  1
  Zn  Zn3  1  0.63211000  0.98116000  0.40031000  1
  H  H4  1  0.10390000  0.19640000  0.12880000  1
  H  H5  1  0.10390000  0.30360000  0.62880000  1
  H  H6  1  0.20730000  0.04290000  0.20410000  1
  H  H7  1  0.20730000  0.45710000  0.70410000  1
  H  H8  1  0.22740000  0.13550000  0.89210000  1
  H  H9  1  0.22740000  0.36450000  0.39210000  1
  H  H10  1  0.23980000  0.70260000  0.19480000  1
  H  H11  1  0.23980000  0.79740000  0.69480000  1
  H  H12  1  0.32660000  0.69680000  0.73360000  1
  H  H13  1  0.32660000  0.80320000  0.23360000  1
  H  H14  1  0.32780000  0.03840000  0.47020000  1
  H  H15  1  0.32780000  0.46160000  0.97020000  1
  H  H16  1  0.35230000  0.03850000  0.71360000  1
  H  H17  1  0.35230000  0.46150000  0.21360000  1
  H  H18  1  0.46660000  0.18450000  0.78910000  1
  H  H19  1  0.46660000  0.31550000  0.28910000  1
  H  H20  1  0.60390000  0.69640000  0.37120000  1
  H  H21  1  0.60390000  0.80360000  0.87120000  1
  H  H22  1  0.70730000  0.54290000  0.29590000  1
  H  H23  1  0.70730000  0.95710000  0.79590000  1
  H  H24  1  0.72740000  0.63550000  0.60790000  1
  H  H25  1  0.72740000  0.86450000  0.10790000  1
  H  H26  1  0.73980000  0.20260000  0.30520000  1
  H  H27  1  0.73980000  0.29740000  0.80520000  1
  H  H28  1  0.82660000  0.19680000  0.76640000  1
  H  H29  1  0.82660000  0.30320000  0.26640000  1
  H  H30  1  0.82780000  0.53840000  0.02980000  1
  H  H31  1  0.82780000  0.96160000  0.52980000  1
  H  H32  1  0.85230000  0.53850000  0.78640000  1
  H  H33  1  0.85230000  0.96150000  0.28640000  1
  H  H34  1  0.96660000  0.68450000  0.71090000  1
  H  H35  1  0.96660000  0.81550000  0.21090000  1
  C  C36  1  0.03100000  0.16180000  0.46365000  1
  C  C37  1  0.03100000  0.33820000  0.96365000  1
  C  C38  1  0.14690000  0.18940000  0.89900000  1
  C  C39  1  0.14690000  0.31060000  0.39900000  1
  C  C40  1  0.17770000  0.22020000  0.16150000  1
  C  C41  1  0.17770000  0.27980000  0.66150000  1
  C  C42  1  0.23960000  0.12730000  0.20630000  1
  C  C43  1  0.23960000  0.37270000  0.70630000  1
  C  C44  1  0.32420000  0.12400000  0.71110000  1
  C  C45  1  0.32420000  0.37600000  0.21110000  1
  C  C46  1  0.34950000  0.16260000  0.25410000  1
  C  C47  1  0.34950000  0.33740000  0.75410000  1
  C  C48  1  0.37330000  0.52410000  0.99880000  1
  C  C49  1  0.37330000  0.97590000  0.49880000  1
  C  C50  1  0.39280000  0.21080000  0.75690000  1
  C  C51  1  0.39280000  0.28920000  0.25690000  1
  C  C52  1  0.41430000  0.65870000  0.08431000  1
  C  C53  1  0.41430000  0.84130000  0.58431000  1
  C  C54  1  0.42040000  0.06570000  0.30440000  1
  C  C55  1  0.42040000  0.43430000  0.80440000  1
  C  C56  1  0.42150000  0.74290000  0.14610000  1
  C  C57  1  0.42150000  0.75710000  0.64610000  1
  C  C58  1  0.53100000  0.66180000  0.03635000  1
  C  C59  1  0.53100000  0.83820000  0.53635000  1
  C  C60  1  0.64690000  0.68940000  0.60100000  1
  C  C61  1  0.64690000  0.81060000  0.10100000  1
  C  C62  1  0.67770000  0.72020000  0.33850000  1
  C  C63  1  0.67770000  0.77980000  0.83850000  1
  C  C64  1  0.73960000  0.62730000  0.29370000  1
  C  C65  1  0.73960000  0.87270000  0.79370000  1
  C  C66  1  0.82420000  0.62400000  0.78890000  1
  C  C67  1  0.82420000  0.87600000  0.28890000  1
  C  C68  1  0.84950000  0.66260000  0.24590000  1
  C  C69  1  0.84950000  0.83740000  0.74590000  1
  C  C70  1  0.87330000  0.02410000  0.50120000  1
  C  C71  1  0.87330000  0.47590000  0.00120000  1
  C  C72  1  0.89280000  0.71080000  0.74310000  1
  C  C73  1  0.89280000  0.78920000  0.24310000  1
  C  C74  1  0.91430000  0.15870000  0.41569000  1
  C  C75  1  0.91430000  0.34130000  0.91569000  1
  C  C76  1  0.92040000  0.56570000  0.19560000  1
  C  C77  1  0.92040000  0.93430000  0.69560000  1
  C  C78  1  0.92150000  0.24290000  0.35390000  1
  C  C79  1  0.92150000  0.25710000  0.85390000  1
  N  N80  1  0.00500000  0.07400000  0.51899000  1
  N  N81  1  0.00500000  0.42600000  0.01899000  1
  N  N82  1  0.04110000  0.18140000  0.84835000  1
  N  N83  1  0.04110000  0.31860000  0.34835000  1
  N  N84  1  0.15320000  0.23660000  0.45776000  1
  N  N85  1  0.15320000  0.26340000  0.95776000  1
  N  N86  1  0.22020000  0.15710000  0.66366000  1
  N  N87  1  0.22020000  0.34290000  0.16366000  1
  N  N88  1  0.31170000  0.56990000  0.06010000  1
  N  N89  1  0.31170000  0.93010000  0.56010000  1
  N  N90  1  0.31690000  0.74950000  0.69760000  1
  N  N91  1  0.31690000  0.75050000  0.19760000  1
  N  N92  1  0.50500000  0.57400000  0.98101000  1
  N  N93  1  0.50500000  0.92600000  0.48101000  1
  N  N94  1  0.54110000  0.68140000  0.65165000  1
  N  N95  1  0.54110000  0.81860000  0.15165000  1
  N  N96  1  0.65320000  0.73660000  0.04224000  1
  N  N97  1  0.65320000  0.76340000  0.54224000  1
  N  N98  1  0.72020000  0.65710000  0.83634000  1
  N  N99  1  0.72020000  0.84290000  0.33634000  1
  N  N100  1  0.81170000  0.06990000  0.43990000  1
  N  N101  1  0.81170000  0.43010000  0.93990000  1
  N  N102  1  0.81690000  0.24950000  0.80240000  1
  N  N103  1  0.81690000  0.25050000  0.30240000  1
  O  O104  1  0.03790000  0.60630000  0.16284000  1
  O  O105  1  0.03790000  0.89370000  0.66284000  1
  O  O106  1  0.36670000  0.54020000  0.81265000  1
  O  O107  1  0.36670000  0.95980000  0.31265000  1
  O  O108  1  0.53790000  0.10630000  0.33716000  1
  O  O109  1  0.53790000  0.39370000  0.83716000  1
  O  O110  1  0.86670000  0.04020000  0.68735000  1
  O  O111  1  0.86670000  0.45980000  0.18735000  1
