# generated using pymatgen
data_KCdH8(C2O)8
_symmetry_space_group_name_H-M   'P 1'
_cell_length_a   20.60900000
_cell_length_b   20.60900000
_cell_length_c   28.31400000
_cell_angle_alpha   90.00000000
_cell_angle_beta   90.00000000
_cell_angle_gamma   120.00000000
_symmetry_Int_Tables_number   1
_chemical_formula_structural   KCdH8(C2O)8
_chemical_formula_sum   'K18 Cd18 H144 C288 O144'
_cell_volume   10414.67442417
_cell_formula_units_Z   18
loop_
 _symmetry_equiv_pos_site_id
 _symmetry_equiv_pos_as_xyz
  1  'x, y, z'
loop_
 _atom_site_type_symbol
 _atom_site_label
 _atom_site_symmetry_multiplicity
 _atom_site_fract_x
 _atom_site_fract_y
 _atom_site_fract_z
 _atom_site_occupancy
  K  K0  1  0.94102000  0.42380000  0.46647000  1
  K  K1  1  0.92219000  0.19305000  0.79665000  1
  K  K2  1  0.85201000  0.24717000  0.21450000  1
  K  K3  1  0.80695000  0.72914000  0.12998000  1
  K  K4  1  0.75283000  0.60484000  0.54783000  1
  K  K5  1  0.72914000  0.92219000  0.96331000  1
  K  K6  1  0.60484000  0.85201000  0.38116000  1
  K  K7  1  0.57620000  0.51722000  0.79981000  1
  K  K8  1  0.51722000  0.94102000  0.63314000  1
  K  K9  1  0.48278000  0.05898000  0.13314000  1
  K  K10  1  0.42380000  0.48278000  0.29981000  1
  K  K11  1  0.39516000  0.14799000  0.88116000  1
  K  K12  1  0.27086000  0.07781000  0.46331000  1
  K  K13  1  0.24717000  0.39516000  0.04783000  1
  K  K14  1  0.19305000  0.27086000  0.62998000  1
  K  K15  1  0.14799000  0.75283000  0.71450000  1
  K  K16  1  0.07781000  0.80695000  0.29665000  1
  K  K17  1  0.05898000  0.57620000  0.96647000  1
  Cd  Cd18  1  0.99887000  0.76802000  0.16839000  1
  Cd  Cd19  1  0.90987000  0.57576000  0.50856000  1
  Cd  Cd20  1  0.88934000  0.33300000  0.34178000  1
  Cd  Cd21  1  0.76915000  0.00113000  0.83506000  1
  Cd  Cd22  1  0.76802000  0.76915000  0.00172000  1
  Cd  Cd23  1  0.66700000  0.55634000  0.67511000  1
  Cd  Cd24  1  0.66589000  0.09013000  0.17523000  1
  Cd  Cd25  1  0.57576000  0.66589000  0.34190000  1
  Cd  Cd26  1  0.55634000  0.88934000  0.50844000  1
  Cd  Cd27  1  0.44366000  0.11066000  0.00844000  1
  Cd  Cd28  1  0.42424000  0.33411000  0.84190000  1
  Cd  Cd29  1  0.33411000  0.90987000  0.67523000  1
  Cd  Cd30  1  0.33300000  0.44366000  0.17511000  1
  Cd  Cd31  1  0.23198000  0.23085000  0.50172000  1
  Cd  Cd32  1  0.23085000  0.99887000  0.33506000  1
  Cd  Cd33  1  0.11066000  0.66700000  0.84178000  1
  Cd  Cd34  1  0.09013000  0.42424000  0.00856000  1
  Cd  Cd35  1  0.00113000  0.23198000  0.66839000  1
  H  H36  1  0.99770000  0.04430000  0.03333000  1
  H  H37  1  0.99460000  0.89140000  0.02223000  1
  H  H38  1  0.98740000  0.06960000  0.80277000  1
  H  H39  1  0.97500000  0.19100000  0.92333000  1
  H  H40  1  0.96600000  0.76580000  0.90917000  1
  H  H41  1  0.96260000  0.91780000  0.78957000  1
  H  H42  1  0.96180000  0.13570000  0.28167000  1
  H  H43  1  0.95570000  0.95340000  0.36667000  1
  H  H44  1  0.95520000  0.03740000  0.45623000  1
  H  H45  1  0.95340000  0.99770000  0.20000000  1
  H  H46  1  0.93900000  0.82980000  0.54283000  1
  H  H47  1  0.93040000  0.91780000  0.13610000  1
  H  H48  1  0.91780000  0.95520000  0.62290000  1
  H  H49  1  0.91780000  0.98740000  0.96943000  1
  H  H50  1  0.89910000  0.37370000  0.59733000  1
  H  H51  1  0.89680000  0.00540000  0.68890000  1
  H  H52  1  0.89140000  0.89680000  0.85557000  1
  H  H53  1  0.89080000  0.06100000  0.20950000  1
  H  H54  1  0.87990000  0.53610000  0.25437000  1
  H  H55  1  0.87260000  0.56140000  0.77000000  1
  H  H56  1  0.86430000  0.82610000  0.61500000  1
  H  H57  1  0.85150000  0.29560000  0.09030000  1
  H  H58  1  0.84320000  0.47010000  0.89960000  1
  H  H59  1  0.83770000  0.38850000  0.97120000  1
  H  H60  1  0.82980000  0.89080000  0.37617000  1
  H  H61  1  0.82610000  0.96180000  0.44833000  1
  H  H62  1  0.81580000  0.30330000  0.72673000  1
  H  H63  1  0.80900000  0.78400000  0.25667000  1
  H  H64  1  0.79980000  0.03400000  0.57583000  1
  H  H65  1  0.78400000  0.97500000  0.09000000  1
  H  H66  1  0.76970000  0.50720000  0.13247000  1
  H  H67  1  0.76950000  0.44440000  0.65583000  1
  H  H68  1  0.76580000  0.79980000  0.74250000  1
  H  H69  1  0.76500000  0.41430000  0.37013000  1
  H  H70  1  0.76350000  0.33710000  0.48677000  1
  H  H71  1  0.74370000  0.36130000  0.71823000  1
  H  H72  1  0.74010000  0.32720000  0.20747000  1
  H  H73  1  0.73750000  0.23030000  0.79913000  1
  H  H74  1  0.71770000  0.37640000  0.13927000  1
  H  H75  1  0.71560000  0.40600000  0.88760000  1
  H  H76  1  0.70730000  0.32620000  0.97820000  1
  H  H77  1  0.70440000  0.55590000  0.42363000  1
  H  H78  1  0.69670000  0.51250000  0.06007000  1
  H  H79  1  0.69040000  0.28440000  0.55427000  1
  H  H80  1  0.68880000  0.12740000  0.43667000  1
  H  H81  1  0.67490000  0.23050000  0.32250000  1
  H  H82  1  0.67380000  0.38110000  0.31153000  1
  H  H83  1  0.67280000  0.41290000  0.54080000  1
  H  H84  1  0.66290000  0.42640000  0.82010000  1
  H  H85  1  0.65870000  0.28230000  0.80593000  1
  H  H86  1  0.65620000  0.12010000  0.92103000  1
  H  H87  1  0.64930000  0.23500000  0.03680000  1
  H  H88  1  0.63870000  0.38240000  0.05157000  1
  H  H89  1  0.62690000  0.15680000  0.56627000  1
  H  H90  1  0.62630000  0.52540000  0.93067000  1
  H  H91  1  0.62360000  0.34130000  0.47260000  1
  H  H92  1  0.61890000  0.29270000  0.64487000  1
  H  H93  1  0.61760000  0.25630000  0.38490000  1
  H  H94  1  0.61150000  0.44920000  0.30453000  1
  H  H95  1  0.59400000  0.30960000  0.22093000  1
  H  H96  1  0.58710000  0.25990000  0.87413000  1
  H  H97  1  0.58570000  0.35070000  0.70347000  1
  H  H98  1  0.57360000  0.23650000  0.15343000  1
  H  H99  1  0.56140000  0.68880000  0.60333000  1
  H  H100  1  0.55590000  0.85150000  0.25697000  1
  H  H101  1  0.55560000  0.32510000  0.98917000  1
  H  H102  1  0.55080000  0.16230000  0.63787000  1
  H  H103  1  0.53610000  0.65620000  0.08770000  1
  H  H104  1  0.52990000  0.37310000  0.23293000  1
  H  H105  1  0.52540000  0.89910000  0.76400000  1
  H  H106  1  0.51250000  0.81580000  0.89340000  1
  H  H107  1  0.50720000  0.73750000  0.96580000  1
  H  H108  1  0.49280000  0.26250000  0.46580000  1
  H  H109  1  0.48750000  0.18420000  0.39340000  1
  H  H110  1  0.47460000  0.10090000  0.26400000  1
  H  H111  1  0.47010000  0.62690000  0.73293000  1
  H  H112  1  0.46390000  0.34380000  0.58770000  1
  H  H113  1  0.44920000  0.83770000  0.13787000  1
  H  H114  1  0.44440000  0.67490000  0.48917000  1
  H  H115  1  0.44410000  0.14850000  0.75697000  1
  H  H116  1  0.43860000  0.31120000  0.10333000  1
  H  H117  1  0.42640000  0.76350000  0.65343000  1
  H  H118  1  0.41430000  0.64930000  0.20347000  1
  H  H119  1  0.41290000  0.74010000  0.37413000  1
  H  H120  1  0.40600000  0.69040000  0.72093000  1
  H  H121  1  0.38850000  0.55080000  0.80453000  1
  H  H122  1  0.38240000  0.74370000  0.88490000  1
  H  H123  1  0.38110000  0.70730000  0.14487000  1
  H  H124  1  0.37640000  0.65870000  0.97260000  1
  H  H125  1  0.37370000  0.47460000  0.43067000  1
  H  H126  1  0.37310000  0.84320000  0.06627000  1
  H  H127  1  0.36130000  0.61760000  0.55157000  1
  H  H128  1  0.35070000  0.76500000  0.53680000  1
  H  H129  1  0.34380000  0.87990000  0.42103000  1
  H  H130  1  0.34130000  0.71770000  0.30593000  1
  H  H131  1  0.33710000  0.57360000  0.32010000  1
  H  H132  1  0.32720000  0.58710000  0.04080000  1
  H  H133  1  0.32620000  0.61890000  0.81153000  1
  H  H134  1  0.32510000  0.76950000  0.82250000  1
  H  H135  1  0.31120000  0.87260000  0.93667000  1
  H  H136  1  0.30960000  0.71560000  0.05427000  1
  H  H137  1  0.30330000  0.48750000  0.56007000  1
  H  H138  1  0.29560000  0.44410000  0.92363000  1
  H  H139  1  0.29270000  0.67380000  0.47820000  1
  H  H140  1  0.28440000  0.59400000  0.38760000  1
  H  H141  1  0.28230000  0.62360000  0.63927000  1
  H  H142  1  0.26250000  0.76970000  0.29913000  1
  H  H143  1  0.25990000  0.67280000  0.70747000  1
  H  H144  1  0.25630000  0.63870000  0.21823000  1
  H  H145  1  0.23650000  0.66290000  0.98677000  1
  H  H146  1  0.23500000  0.58570000  0.87013000  1
  H  H147  1  0.23420000  0.20020000  0.24250000  1
  H  H148  1  0.23050000  0.55560000  0.15583000  1
  H  H149  1  0.23030000  0.49280000  0.63247000  1
  H  H150  1  0.21600000  0.02500000  0.59000000  1
  H  H151  1  0.20020000  0.96600000  0.07583000  1
  H  H152  1  0.19100000  0.21600000  0.75667000  1
  H  H153  1  0.18420000  0.69670000  0.22673000  1
  H  H154  1  0.17390000  0.03820000  0.94833000  1
  H  H155  1  0.17020000  0.10920000  0.87617000  1
  H  H156  1  0.16230000  0.61150000  0.47120000  1
  H  H157  1  0.15680000  0.52990000  0.39960000  1
  H  H158  1  0.14850000  0.70440000  0.59030000  1
  H  H159  1  0.13570000  0.17390000  0.11500000  1
  H  H160  1  0.12740000  0.43860000  0.27000000  1
  H  H161  1  0.12010000  0.46390000  0.75437000  1
  H  H162  1  0.10920000  0.93900000  0.70950000  1
  H  H163  1  0.10860000  0.10320000  0.35557000  1
  H  H164  1  0.10320000  0.99460000  0.18890000  1
  H  H165  1  0.10090000  0.62630000  0.09733000  1
  H  H166  1  0.08220000  0.01260000  0.46943000  1
  H  H167  1  0.08220000  0.04480000  0.12290000  1
  H  H168  1  0.06960000  0.08220000  0.63610000  1
  H  H169  1  0.06100000  0.17020000  0.04283000  1
  H  H170  1  0.04660000  0.00230000  0.70000000  1
  H  H171  1  0.04480000  0.96260000  0.95623000  1
  H  H172  1  0.04430000  0.04660000  0.86667000  1
  H  H173  1  0.03820000  0.86430000  0.78167000  1
  H  H174  1  0.03740000  0.08220000  0.28957000  1
  H  H175  1  0.03400000  0.23420000  0.40917000  1
  H  H176  1  0.02500000  0.80900000  0.42333000  1
  H  H177  1  0.01260000  0.93040000  0.30277000  1
  H  H178  1  0.00540000  0.10860000  0.52223000  1
  H  H179  1  0.00230000  0.95570000  0.53333000  1
  C  C180  1  0.99220000  0.07390000  0.01073000  1
  C  C181  1  0.99170000  0.14570000  0.30837000  1
  C  C182  1  0.99170000  0.19380000  0.34377000  1
  C  C183  1  0.97950000  0.16240000  0.94243000  1
  C  C184  1  0.97520000  0.80360000  0.48373000  1
  C  C185  1  0.96950000  0.85040000  0.51653000  1
  C  C186  1  0.96510000  0.79540000  0.88467000  1
  C  C187  1  0.96340000  0.88710000  0.81337000  1
  C  C188  1  0.96080000  0.90600000  0.30567000  1
  C  C189  1  0.95490000  0.56020000  0.84170000  1
  C  C190  1  0.95360000  0.07900000  0.51933000  1
  C  C191  1  0.94800000  0.23440000  0.33807000  1
  C  C192  1  0.94560000  0.83130000  0.23027000  1
  C  C193  1  0.94520000  0.03920000  0.97233000  1
  C  C194  1  0.94150000  0.08760000  0.93753000  1
  C  C195  1  0.94130000  0.72050000  0.48913000  1
  C  C196  1  0.94110000  0.38240000  0.02290000  1
  C  C197  1  0.94060000  0.13130000  0.59743000  1
  C  C198  1  0.92610000  0.91830000  0.34407000  1
  C  C199  1  0.92370000  0.03660000  0.48003000  1
  C  C200  1  0.92150000  0.82870000  0.88857000  1
  C  C201  1  0.92100000  0.87460000  0.85267000  1
  C  C202  1  0.91830000  0.99220000  0.17740000  1
  C  C203  1  0.91240000  0.85390000  0.27087000  1
  C  C204  1  0.90720000  0.07850000  0.55523000  1
  C  C205  1  0.90600000  0.94520000  0.13900000  1
  C  C206  1  0.90500000  0.28910000  0.66683000  1
  C  C207  1  0.88710000  0.92370000  0.64670000  1
  C  C208  1  0.88570000  0.05440000  0.89693000  1
  C  C209  1  0.88090000  0.03050000  0.18320000  1
  C  C210  1  0.88010000  0.61910000  0.18087000  1
  C  C211  1  0.87460000  0.95360000  0.68600000  1
  C  C212  1  0.87280000  0.52180000  0.83570000  1
  C  C213  1  0.87020000  0.37370000  0.62263000  1
  C  C214  1  0.86870000  0.80930000  0.93077000  1
  C  C215  1  0.86280000  0.33000000  0.66213000  1
  C  C216  1  0.85670000  0.34610000  0.02940000  1
  C  C217  1  0.85430000  0.84600000  0.64170000  1
  C  C218  1  0.85410000  0.46920000  0.57913000  1
  C  C219  1  0.85390000  0.94150000  0.10420000  1
  C  C220  1  0.85040000  0.88090000  0.34987000  1
  C  C221  1  0.84950000  0.50450000  0.23057000  1
  C  C222  1  0.84600000  0.99170000  0.47503000  1
  C  C223  1  0.84100000  0.53080000  0.79370000  1
  C  C224  1  0.83970000  0.39780000  0.27557000  1
  C  C225  1  0.83760000  0.81710000  0.27577000  1
  C  C226  1  0.83630000  0.41670000  0.61953000  1
  C  C227  1  0.83620000  0.53280000  0.19047000  1
  C  C228  1  0.83130000  0.88570000  0.06360000  1
  C  C229  1  0.83030000  0.03490000  0.55133000  1
  C  C230  1  0.82870000  0.90720000  0.72190000  1
  C  C231  1  0.82840000  0.02480000  0.15040000  1
  C  C232  1  0.82380000  0.47580000  0.87120000  1
  C  C233  1  0.82230000  0.29930000  0.06650000  1
  C  C234  1  0.81880000  0.32920000  0.69913000  1
  C  C235  1  0.81710000  0.97950000  0.10910000  1
  C  C236  1  0.81620000  0.42710000  0.23497000  1
  C  C237  1  0.81440000  0.35580000  0.99630000  1
  C  C238  1  0.80930000  0.94060000  0.76410000  1
  C  C239  1  0.80620000  0.79790000  0.67710000  1
  C  C240  1  0.80360000  0.82840000  0.31707000  1
  C  C241  1  0.79840000  0.50890000  0.44223000  1
  C  C242  1  0.79790000  0.99170000  0.51043000  1
  C  C243  1  0.79540000  0.83030000  0.71800000  1
  C  C244  1  0.79130000  0.41430000  0.65663000  1
  C  C245  1  0.78300000  0.48680000  0.15737000  1
  C  C246  1  0.78000000  0.26570000  0.41047000  1
  C  C247  1  0.77920000  0.05870000  0.15580000  1
  C  C248  1  0.77850000  0.36730000  0.69523000  1
  C  C249  1  0.76560000  0.71360000  0.67140000  1
  C  C250  1  0.76530000  0.49590000  0.78700000  1
  C  C251  1  0.76450000  0.37870000  0.20257000  1
  C  C252  1  0.74960000  0.40820000  0.16257000  1
  C  C253  1  0.74670000  0.43860000  0.86440000  1
  C  C254  1  0.74370000  0.48710000  0.40323000  1
  C  C255  1  0.74340000  0.25630000  0.06990000  1
  C  C256  1  0.73900000  0.11990000  0.84753000  1
  C  C257  1  0.73590000  0.31710000  0.99970000  1
  C  C258  1  0.73550000  0.43680000  0.36923000  1
  C  C259  1  0.73430000  0.51430000  0.74380000  1
  C  C260  1  0.73420000  0.28540000  0.49027000  1
  C  C261  1  0.73060000  0.23470000  0.45367000  1
  C  C262  1  0.72050000  0.77920000  0.32247000  1
  C  C263  1  0.71460000  0.44880000  0.82360000  1
  C  C264  1  0.71360000  0.94800000  0.50473000  1
  C  C265  1  0.71090000  0.61590000  0.00017000  1
  C  C266  1  0.71050000  0.20160000  0.10890000  1
  C  C267  1  0.70380000  0.21700000  0.82403000  1
  C  C268  1  0.70130000  0.26450000  0.03590000  1
  C  C269  1  0.70070000  0.52300000  0.39983000  1
  C  C270  1  0.69660000  0.16380000  0.85713000  1
  C  C271  1  0.69190000  0.25330000  0.53107000  1
  C  C272  1  0.68980000  0.15900000  0.46037000  1
  C  C273  1  0.68290000  0.41880000  0.33303000  1
  C  C274  1  0.67080000  0.48960000  0.03247000  1
  C  C275  1  0.67000000  0.53280000  0.99547000  1
  C  C276  1  0.65860000  0.25040000  0.82923000  1
  C  C277  1  0.65500000  0.15050000  0.89723000  1
  C  C278  1  0.65390000  0.51060000  0.36273000  1
  C  C279  1  0.65200000  0.17620000  0.53787000  1
  C  C280  1  0.64900000  0.12720000  0.50237000  1
  C  C281  1  0.64420000  0.45860000  0.32963000  1
  C  C282  1  0.63270000  0.41120000  0.02857000  1
  C  C283  1  0.62630000  0.49650000  0.95597000  1
  C  C284  1  0.62300000  0.20870000  0.32330000  1
  C  C285  1  0.62130000  0.38580000  0.53590000  1
  C  C286  1  0.61910000  0.73900000  0.01420000  1
  C  C287  1  0.61760000  0.55870000  0.35623000  1
  C  C288  1  0.61590000  0.90500000  0.83350000  1
  C  C289  1  0.61510000  0.14590000  0.24580000  1
  C  C290  1  0.61420000  0.23550000  0.86923000  1
  C  C291  1  0.61090000  0.18380000  0.90163000  1
  C  C292  1  0.60530000  0.04510000  0.50837000  1
  C  C293  1  0.60220000  0.44190000  0.60890000  1
  C  C294  1  0.59180000  0.34140000  0.49590000  1
  C  C295  1  0.58880000  0.22150000  0.36190000  1
  C  C296  1  0.58570000  0.37700000  0.98997000  1
  C  C297  1  0.58330000  0.41960000  0.95287000  1
  C  C298  1  0.58120000  0.26410000  0.66637000  1
  C  C299  1  0.58040000  0.16370000  0.28620000  1
  C  C300  1  0.57290000  0.38910000  0.56830000  1
  C  C301  1  0.56320000  0.29870000  0.70257000  1
  C  C302  1  0.56140000  0.30810000  0.19773000  1
  C  C303  1  0.56020000  0.60530000  0.67503000  1
  C  C304  1  0.55870000  0.94110000  0.18957000  1
  C  C305  1  0.55810000  0.16030000  0.94223000  1
  C  C306  1  0.55120000  0.26580000  0.15693000  1
  C  C307  1  0.54140000  0.18560000  0.66297000  1
  C  C308  1  0.53280000  0.69660000  0.02380000  1
  C  C309  1  0.53280000  0.86280000  0.82880000  1
  C  C310  1  0.53080000  0.68980000  0.62703000  1
  C  C311  1  0.53080000  0.38490000  0.91247000  1
  C  C312  1  0.52420000  0.34800000  0.20453000  1
  C  C313  1  0.52300000  0.82230000  0.23317000  1
  C  C314  1  0.52180000  0.64900000  0.66903000  1
  C  C315  1  0.51430000  0.78000000  0.57713000  1
  C  C316  1  0.51320000  0.29620000  0.49070000  1
  C  C317  1  0.51290000  0.25660000  0.73657000  1
  C  C318  1  0.51060000  0.85670000  0.19607000  1
  C  C319  1  0.51040000  0.18120000  0.36580000  1
  C  C320  1  0.50890000  0.71050000  0.27557000  1
  C  C321  1  0.50450000  0.65500000  0.06390000  1
  C  C322  1  0.50410000  0.26940000  0.12033000  1
  C  C323  1  0.50350000  0.12980000  0.28930000  1
  C  C324  1  0.49650000  0.87020000  0.78930000  1
  C  C325  1  0.49590000  0.73060000  0.62033000  1
  C  C326  1  0.49550000  0.34500000  0.56390000  1
  C  C327  1  0.49110000  0.28950000  0.77557000  1
  C  C328  1  0.48960000  0.81880000  0.86580000  1
  C  C329  1  0.48940000  0.14330000  0.69607000  1
  C  C330  1  0.48710000  0.74340000  0.23657000  1
  C  C331  1  0.48680000  0.70380000  0.99070000  1
  C  C332  1  0.48570000  0.22000000  0.07713000  1
  C  C333  1  0.47820000  0.35100000  0.16903000  1
  C  C334  1  0.47700000  0.17770000  0.73317000  1
  C  C335  1  0.47580000  0.65200000  0.70453000  1
  C  C336  1  0.46920000  0.61510000  0.41247000  1
  C  C337  1  0.46920000  0.31020000  0.12703000  1
  C  C338  1  0.46720000  0.13720000  0.32880000  1
  C  C339  1  0.46720000  0.30340000  0.52380000  1
  C  C340  1  0.45860000  0.81440000  0.16297000  1
  C  C341  1  0.44880000  0.73420000  0.65693000  1
  C  C342  1  0.44190000  0.83970000  0.44223000  1
  C  C343  1  0.44130000  0.05890000  0.68957000  1
  C  C344  1  0.43980000  0.39470000  0.17503000  1
  C  C345  1  0.43860000  0.69190000  0.69773000  1
  C  C346  1  0.43680000  0.70130000  0.20257000  1
  C  C347  1  0.42710000  0.61090000  0.06830000  1
  C  C348  1  0.41960000  0.83630000  0.78620000  1
  C  C349  1  0.41880000  0.73590000  0.16637000  1
  C  C350  1  0.41670000  0.58040000  0.45287000  1
  C  C351  1  0.41430000  0.62300000  0.48997000  1
  C  C352  1  0.41120000  0.77850000  0.86190000  1
  C  C353  1  0.40820000  0.65860000  0.99590000  1
  C  C354  1  0.39780000  0.55810000  0.10890000  1
  C  C355  1  0.39470000  0.95490000  0.00837000  1
  C  C356  1  0.38910000  0.81620000  0.40163000  1
  C  C357  1  0.38580000  0.76450000  0.36923000  1
  C  C358  1  0.38490000  0.85410000  0.74580000  1
  C  C359  1  0.38410000  0.09500000  0.33350000  1
  C  C360  1  0.38240000  0.44130000  0.85623000  1
  C  C361  1  0.38090000  0.26100000  0.51420000  1
  C  C362  1  0.37870000  0.61420000  0.03590000  1
  C  C363  1  0.37700000  0.79130000  0.82330000  1
  C  C364  1  0.37370000  0.50350000  0.45597000  1
  C  C365  1  0.36730000  0.58880000  0.52857000  1
  C  C366  1  0.35580000  0.54140000  0.82963000  1
  C  C367  1  0.35100000  0.87280000  0.00237000  1
  C  C368  1  0.34800000  0.82380000  0.03787000  1
  C  C369  1  0.34610000  0.48940000  0.86273000  1
  C  C370  1  0.34500000  0.84950000  0.39723000  1
  C  C371  1  0.34140000  0.74960000  0.32923000  1
  C  C372  1  0.33000000  0.46720000  0.49547000  1
  C  C373  1  0.32920000  0.51040000  0.53247000  1
  C  C374  1  0.31710000  0.58120000  0.83303000  1
  C  C375  1  0.31020000  0.84100000  0.96037000  1
  C  C376  1  0.30810000  0.74670000  0.03107000  1
  C  C377  1  0.30340000  0.83620000  0.35713000  1
  C  C378  1  0.29930000  0.47700000  0.89983000  1
  C  C379  1  0.29870000  0.73550000  0.53590000  1
  C  C380  1  0.29620000  0.78300000  0.32403000  1
  C  C381  1  0.28950000  0.79840000  0.60890000  1
  C  C382  1  0.28910000  0.38410000  0.50017000  1
  C  C383  1  0.28640000  0.05200000  0.00473000  1
  C  C384  1  0.28540000  0.55120000  0.32360000  1
  C  C385  1  0.27950000  0.22080000  0.82247000  1
  C  C386  1  0.26940000  0.76530000  0.95367000  1
  C  C387  1  0.26580000  0.71460000  0.99027000  1
  C  C388  1  0.26570000  0.48570000  0.24380000  1
  C  C389  1  0.26450000  0.56320000  0.86923000  1
  C  C390  1  0.26410000  0.68290000  0.49970000  1
  C  C391  1  0.26100000  0.88010000  0.34753000  1
  C  C392  1  0.25660000  0.74370000  0.56990000  1
  C  C393  1  0.25630000  0.51290000  0.90323000  1
  C  C394  1  0.25330000  0.56140000  0.36440000  1
  C  C395  1  0.25040000  0.59180000  0.66257000  1
  C  C396  1  0.23550000  0.62130000  0.70257000  1
  C  C397  1  0.23470000  0.50410000  0.28700000  1
  C  C398  1  0.23440000  0.28640000  0.17140000  1
  C  C399  1  0.22150000  0.63270000  0.19523000  1
  C  C400  1  0.22080000  0.94130000  0.65580000  1
  C  C401  1  0.22000000  0.73430000  0.91047000  1
  C  C402  1  0.21700000  0.51320000  0.65737000  1
  C  C403  1  0.20870000  0.58570000  0.15663000  1
  C  C404  1  0.20460000  0.16970000  0.21800000  1
  C  C405  1  0.20210000  0.00830000  0.01043000  1
  C  C406  1  0.20160000  0.49110000  0.94223000  1
  C  C407  1  0.19640000  0.17160000  0.81707000  1
  C  C408  1  0.19380000  0.20210000  0.17710000  1
  C  C409  1  0.19070000  0.05940000  0.26410000  1
  C  C410  1  0.18560000  0.64420000  0.49630000  1
  C  C411  1  0.18380000  0.57290000  0.73497000  1
  C  C412  1  0.18290000  0.02050000  0.60910000  1
  C  C413  1  0.18120000  0.67080000  0.19913000  1
  C  C414  1  0.17770000  0.70070000  0.56650000  1
  C  C415  1  0.17620000  0.52420000  0.37120000  1
  C  C416  1  0.17160000  0.97520000  0.65040000  1
  C  C417  1  0.17130000  0.09280000  0.22190000  1
  C  C418  1  0.16970000  0.96510000  0.05133000  1
  C  C419  1  0.16870000  0.11430000  0.56360000  1
  C  C420  1  0.16380000  0.46720000  0.69047000  1
  C  C421  1  0.16370000  0.58330000  0.11953000  1
  C  C422  1  0.16240000  0.18290000  0.77577000  1
  C  C423  1  0.16030000  0.60220000  0.77557000  1
  C  C424  1  0.15900000  0.46920000  0.29370000  1
  C  C425  1  0.15400000  0.00830000  0.97503000  1
  C  C426  1  0.15050000  0.49550000  0.73057000  1
  C  C427  1  0.14960000  0.11910000  0.84987000  1
  C  C428  1  0.14610000  0.05850000  0.60420000  1
  C  C429  1  0.14590000  0.53080000  0.07913000  1
  C  C430  1  0.14570000  0.15400000  0.14170000  1
  C  C431  1  0.14330000  0.65390000  0.52940000  1
  C  C432  1  0.13720000  0.67000000  0.16213000  1
  C  C433  1  0.13130000  0.19070000  0.43077000  1
  C  C434  1  0.12980000  0.62630000  0.12263000  1
  C  C435  1  0.12720000  0.47820000  0.33570000  1
  C  C436  1  0.12540000  0.04640000  0.18600000  1
  C  C437  1  0.11990000  0.38090000  0.68087000  1
  C  C438  1  0.11910000  0.96950000  0.68320000  1
  C  C439  1  0.11430000  0.94560000  0.39693000  1
  C  C440  1  0.11290000  0.07630000  0.14670000  1
  C  C441  1  0.09500000  0.71090000  0.16683000  1
  C  C442  1  0.09400000  0.05480000  0.63900000  1
  C  C443  1  0.09280000  0.92150000  0.05523000  1
  C  C444  1  0.08760000  0.14610000  0.77087000  1
  C  C445  1  0.08170000  0.00780000  0.67740000  1
  C  C446  1  0.07900000  0.12540000  0.35267000  1
  C  C447  1  0.07850000  0.17130000  0.38857000  1
  C  C448  1  0.07630000  0.96340000  0.98003000  1
  C  C449  1  0.07390000  0.08170000  0.84407000  1
  C  C450  1  0.05940000  0.86870000  0.09743000  1
  C  C451  1  0.05890000  0.61760000  0.52290000  1
  C  C452  1  0.05870000  0.27950000  0.98913000  1
  C  C453  1  0.05850000  0.91240000  0.43753000  1
  C  C454  1  0.05480000  0.96080000  0.47233000  1
  C  C455  1  0.05440000  0.16870000  0.73027000  1
  C  C456  1  0.05200000  0.76560000  0.83807000  1
  C  C457  1  0.04640000  0.92100000  0.01933000  1
  C  C458  1  0.04510000  0.43980000  0.34170000  1
  C  C459  1  0.03920000  0.09400000  0.80567000  1
  C  C460  1  0.03660000  0.11290000  0.31337000  1
  C  C461  1  0.03490000  0.20460000  0.38467000  1
  C  C462  1  0.03050000  0.14960000  0.01653000  1
  C  C463  1  0.02480000  0.19640000  0.98373000  1
  C  C464  1  0.02050000  0.83760000  0.44243000  1
  C  C465  1  0.00830000  0.80620000  0.84377000  1
  C  C466  1  0.00830000  0.85430000  0.80837000  1
  C  C467  1  0.00780000  0.92610000  0.51073000  1
  O  O468  1  0.99540000  0.59800000  0.80690000  1
  O  O469  1  0.99460000  0.81400000  0.09403000  1
  O  O470  1  0.99020000  0.15690000  0.73457000  1
  O  O471  1  0.98260000  0.56050000  0.88150000  1
  O  O472  1  0.97660000  0.36470000  0.05130000  1
  O  O473  1  0.97310000  0.42630000  0.98890000  1
  O  O474  1  0.95980000  0.68470000  0.46173000  1
  O  O475  1  0.94940000  0.29840000  0.63223000  1
  O  O476  1  0.94340000  0.26940000  0.37197000  1
  O  O477  1  0.92660000  0.65850000  0.20967000  1
  O  O478  1  0.91560000  0.22980000  0.29887000  1
  O  O479  1  0.90790000  0.80260000  0.19557000  1
  O  O480  1  0.90110000  0.69110000  0.52563000  1
  O  O481  1  0.89930000  0.25230000  0.70283000  1
  O  O482  1  0.89870000  0.11720000  0.63303000  1
  O  O483  1  0.89470000  0.09210000  0.86223000  1
  O  O484  1  0.88280000  0.78150000  0.96637000  1
  O  O485  1  0.87780000  0.44100000  0.30867000  1
  O  O486  1  0.87520000  0.45590000  0.54033000  1
  O  O487  1  0.87100000  0.64370000  0.14287000  1
  O  O488  1  0.86070000  0.50840000  0.43563000  1
  O  O489  1  0.84980000  0.52820000  0.58323000  1
  O  O490  1  0.84310000  0.83330000  0.06790000  1
  O  O491  1  0.83330000  0.99020000  0.90123000  1
  O  O492  1  0.83090000  0.33560000  0.41057000  1
  O  O493  1  0.82150000  0.32840000  0.27667000  1
  O  O494  1  0.81940000  0.00540000  0.76070000  1
  O  O495  1  0.81400000  0.81940000  0.92737000  1
  O  O496  1  0.80260000  0.89470000  0.02890000  1
  O  O497  1  0.79000000  0.09890000  0.19230000  1
  O  O498  1  0.78580000  0.53420000  0.47993000  1
  O  O499  1  0.78150000  0.89870000  0.79970000  1
  O  O500  1  0.77580000  0.54980000  0.70970000  1
  O  O501  1  0.77400000  0.22420000  0.37637000  1
  O  O502  1  0.77270000  0.12900000  0.80953000  1
  O  O503  1  0.77020000  0.68580000  0.63220000  1
  O  O504  1  0.74840000  0.21420000  0.14660000  1
  O  O505  1  0.74770000  0.64700000  0.03617000  1
  O  O506  1  0.73190000  0.07340000  0.87633000  1
  O  O507  1  0.73060000  0.67400000  0.70530000  1
  O  O508  1  0.72490000  0.04020000  0.12840000  1
  O  O509  1  0.70160000  0.65100000  0.96557000  1
  O  O510  1  0.69110000  0.79000000  0.35897000  1
  O  O511  1  0.68580000  0.91560000  0.46553000  1
  O  O512  1  0.68470000  0.72490000  0.29507000  1
  O  O513  1  0.67840000  0.15020000  0.24990000  1
  O  O514  1  0.67400000  0.94340000  0.53863000  1
  O  O515  1  0.67160000  0.49310000  0.61000000  1
  O  O516  1  0.66440000  0.49530000  0.74390000  1
  O  O517  1  0.65850000  0.73190000  0.04300000  1
  O  O518  1  0.65100000  0.94940000  0.79890000  1
  O  O519  1  0.64770000  0.13930000  0.10230000  1
  O  O520  1  0.64700000  0.89930000  0.86950000  1
  O  O521  1  0.64370000  0.77270000  0.97620000  1
  O  O522  1  0.63530000  0.61190000  0.38463000  1
  O  O523  1  0.61190000  0.97660000  0.21797000  1
  O  O524  1  0.60260000  0.00460000  0.47357000  1
  O  O525  1  0.59800000  0.60260000  0.64023000  1
  O  O526  1  0.58070000  0.12480000  0.20700000  1
  O  O527  1  0.57790000  0.01740000  0.54817000  1
  O  O528  1  0.57370000  0.54680000  0.32223000  1
  O  O529  1  0.56320000  0.12220000  0.97533000  1
  O  O530  1  0.56050000  0.57790000  0.71483000  1
  O  O531  1  0.55900000  0.43680000  0.64200000  1
  O  O532  1  0.54980000  0.77400000  0.54303000  1
  O  O533  1  0.54680000  0.97310000  0.15557000  1
  O  O534  1  0.54410000  0.41930000  0.87367000  1
  O  O535  1  0.53420000  0.74840000  0.31327000  1
  O  O536  1  0.52820000  0.67840000  0.41657000  1
  O  O537  1  0.50840000  0.64770000  0.26897000  1
  O  O538  1  0.50690000  0.17850000  0.94333000  1
  O  O539  1  0.50470000  0.16910000  0.07723000  1
  O  O540  1  0.49530000  0.83090000  0.57723000  1
  O  O541  1  0.49310000  0.82150000  0.44333000  1
  O  O542  1  0.49160000  0.35230000  0.76897000  1
  O  O543  1  0.47180000  0.32160000  0.91657000  1
  O  O544  1  0.46580000  0.25160000  0.81327000  1
  O  O545  1  0.45590000  0.58070000  0.37367000  1
  O  O546  1  0.45320000  0.02690000  0.65557000  1
  O  O547  1  0.45020000  0.22600000  0.04303000  1
  O  O548  1  0.44100000  0.56320000  0.14200000  1
  O  O549  1  0.43950000  0.42210000  0.21483000  1
  O  O550  1  0.43680000  0.87780000  0.47533000  1
  O  O551  1  0.42630000  0.45320000  0.82223000  1
  O  O552  1  0.42210000  0.98260000  0.04817000  1
  O  O553  1  0.41930000  0.87520000  0.70700000  1
  O  O554  1  0.40200000  0.39740000  0.14023000  1
  O  O555  1  0.39740000  0.99540000  0.97357000  1
  O  O556  1  0.38810000  0.02340000  0.71797000  1
  O  O557  1  0.36470000  0.38810000  0.88463000  1
  O  O558  1  0.35630000  0.22730000  0.47620000  1
  O  O559  1  0.35300000  0.10070000  0.36950000  1
  O  O560  1  0.35230000  0.86070000  0.60230000  1
  O  O561  1  0.34900000  0.05060000  0.29890000  1
  O  O562  1  0.34150000  0.26810000  0.54300000  1
  O  O563  1  0.33560000  0.50470000  0.24390000  1
  O  O564  1  0.32840000  0.50690000  0.11000000  1
  O  O565  1  0.32600000  0.05660000  0.03863000  1
  O  O566  1  0.32160000  0.84980000  0.74990000  1
  O  O567  1  0.31530000  0.27510000  0.79507000  1
  O  O568  1  0.31420000  0.08440000  0.96553000  1
  O  O569  1  0.30890000  0.21000000  0.85897000  1
  O  O570  1  0.29840000  0.34900000  0.46557000  1
  O  O571  1  0.27510000  0.95980000  0.62840000  1
  O  O572  1  0.26940000  0.32600000  0.20530000  1
  O  O573  1  0.26810000  0.92660000  0.37633000  1
  O  O574  1  0.25230000  0.35300000  0.53617000  1
  O  O575  1  0.25160000  0.78580000  0.64660000  1
  O  O576  1  0.22980000  0.31420000  0.13220000  1
  O  O577  1  0.22730000  0.87100000  0.30953000  1
  O  O578  1  0.22600000  0.77580000  0.87637000  1
  O  O579  1  0.22420000  0.45020000  0.20970000  1
  O  O580  1  0.21850000  0.10130000  0.29970000  1
  O  O581  1  0.21420000  0.46580000  0.97993000  1
  O  O582  1  0.21000000  0.90110000  0.69230000  1
  O  O583  1  0.19740000  0.10530000  0.52890000  1
  O  O584  1  0.18600000  0.18060000  0.42737000  1
  O  O585  1  0.18060000  0.99460000  0.26070000  1
  O  O586  1  0.17850000  0.67160000  0.77667000  1
  O  O587  1  0.16910000  0.66440000  0.91057000  1
  O  O588  1  0.16670000  0.00980000  0.40123000  1
  O  O589  1  0.15690000  0.16670000  0.56790000  1
  O  O590  1  0.15020000  0.47180000  0.08323000  1
  O  O591  1  0.13930000  0.49160000  0.93563000  1
  O  O592  1  0.12900000  0.35630000  0.64287000  1
  O  O593  1  0.12480000  0.54410000  0.04033000  1
  O  O594  1  0.12220000  0.55900000  0.80867000  1
  O  O595  1  0.11720000  0.21850000  0.46637000  1
  O  O596  1  0.10530000  0.90790000  0.36223000  1
  O  O597  1  0.10130000  0.88280000  0.13303000  1
  O  O598  1  0.10070000  0.74770000  0.20283000  1
  O  O599  1  0.09890000  0.30890000  0.02563000  1
  O  O600  1  0.09210000  0.19740000  0.69557000  1
  O  O601  1  0.08440000  0.77020000  0.79887000  1
  O  O602  1  0.07340000  0.34150000  0.70967000  1
  O  O603  1  0.05660000  0.73060000  0.87197000  1
  O  O604  1  0.05060000  0.70160000  0.13223000  1
  O  O605  1  0.04020000  0.31530000  0.96173000  1
  O  O606  1  0.02690000  0.57370000  0.48890000  1
  O  O607  1  0.02340000  0.63530000  0.55130000  1
  O  O608  1  0.01740000  0.43950000  0.38150000  1
  O  O609  1  0.00980000  0.84310000  0.23457000  1
  O  O610  1  0.00540000  0.18600000  0.59403000  1
  O  O611  1  0.00460000  0.40200000  0.30690000  1
