# generated using pymatgen
data_Zn2H7C19O8
_symmetry_space_group_name_H-M   'P 1'
_cell_length_a   10.52360000
_cell_length_b   25.76800000
_cell_length_c   25.95070000
_cell_angle_alpha   90.00000000
_cell_angle_beta   90.00000000
_cell_angle_gamma   90.00000000
_symmetry_Int_Tables_number   1
_chemical_formula_structural   Zn2H7C19O8
_chemical_formula_sum   'Zn16 H56 C152 O64'
_cell_volume   7037.10645905
_cell_formula_units_Z   8
loop_
 _symmetry_equiv_pos_site_id
 _symmetry_equiv_pos_as_xyz
  1  'x, y, z'
loop_
 _atom_site_type_symbol
 _atom_site_label
 _atom_site_symmetry_multiplicity
 _atom_site_fract_x
 _atom_site_fract_y
 _atom_site_fract_z
 _atom_site_occupancy
  Zn  Zn0  1  0.06216000  0.07847000  0.63148000  1
  Zn  Zn1  1  0.06216000  0.42153000  0.63148000  1
  Zn  Zn2  1  0.20121000  0.50389000  0.11123000  1
  Zn  Zn3  1  0.20121000  0.99611000  0.11123000  1
  Zn  Zn4  1  0.29879000  0.50389000  0.61123000  1
  Zn  Zn5  1  0.29879000  0.99611000  0.61123000  1
  Zn  Zn6  1  0.43784000  0.07847000  0.13148000  1
  Zn  Zn7  1  0.43784000  0.42153000  0.13148000  1
  Zn  Zn8  1  0.56216000  0.57847000  0.86852000  1
  Zn  Zn9  1  0.56216000  0.92153000  0.86852000  1
  Zn  Zn10  1  0.70121000  0.00389000  0.38877000  1
  Zn  Zn11  1  0.70121000  0.49611000  0.38877000  1
  Zn  Zn12  1  0.79879000  0.00389000  0.88877000  1
  Zn  Zn13  1  0.79879000  0.49611000  0.88877000  1
  Zn  Zn14  1  0.93784000  0.57847000  0.36852000  1
  Zn  Zn15  1  0.93784000  0.92153000  0.36852000  1
  H  H16  1  0.00080000  0.12450000  0.36850000  1
  H  H17  1  0.00080000  0.37550000  0.36850000  1
  H  H18  1  0.03970000  0.02670000  0.24770000  1
  H  H19  1  0.03970000  0.47330000  0.24770000  1
  H  H20  1  0.09400000  0.25000000  0.27950000  1
  H  H21  1  0.11900000  0.16150000  0.47850000  1
  H  H22  1  0.11900000  0.33850000  0.47850000  1
  H  H23  1  0.12840000  0.04350000  0.99140000  1
  H  H24  1  0.12840000  0.45650000  0.99140000  1
  H  H25  1  0.12920000  0.13330000  0.86370000  1
  H  H26  1  0.12920000  0.36670000  0.86370000  1
  H  H27  1  0.21860000  0.16530000  0.24600000  1
  H  H28  1  0.21860000  0.33470000  0.24600000  1
  H  H29  1  0.24480000  0.25000000  0.44800000  1
  H  H30  1  0.25520000  0.25000000  0.94800000  1
  H  H31  1  0.28140000  0.16530000  0.74600000  1
  H  H32  1  0.28140000  0.33470000  0.74600000  1
  H  H33  1  0.37080000  0.13330000  0.36370000  1
  H  H34  1  0.37080000  0.36670000  0.36370000  1
  H  H35  1  0.37160000  0.04350000  0.49140000  1
  H  H36  1  0.37160000  0.45650000  0.49140000  1
  H  H37  1  0.38100000  0.16150000  0.97850000  1
  H  H38  1  0.38100000  0.33850000  0.97850000  1
  H  H39  1  0.40600000  0.25000000  0.77950000  1
  H  H40  1  0.46030000  0.02670000  0.74770000  1
  H  H41  1  0.46030000  0.47330000  0.74770000  1
  H  H42  1  0.49920000  0.12450000  0.86850000  1
  H  H43  1  0.49920000  0.37550000  0.86850000  1
  H  H44  1  0.50080000  0.62450000  0.13150000  1
  H  H45  1  0.50080000  0.87550000  0.13150000  1
  H  H46  1  0.53970000  0.52670000  0.25230000  1
  H  H47  1  0.53970000  0.97330000  0.25230000  1
  H  H48  1  0.59400000  0.75000000  0.22050000  1
  H  H49  1  0.61900000  0.66150000  0.02150000  1
  H  H50  1  0.61900000  0.83850000  0.02150000  1
  H  H51  1  0.62840000  0.54350000  0.50860000  1
  H  H52  1  0.62840000  0.95650000  0.50860000  1
  H  H53  1  0.62920000  0.63330000  0.63630000  1
  H  H54  1  0.62920000  0.86670000  0.63630000  1
  H  H55  1  0.71860000  0.66530000  0.25400000  1
  H  H56  1  0.71860000  0.83470000  0.25400000  1
  H  H57  1  0.74480000  0.75000000  0.05200000  1
  H  H58  1  0.75520000  0.75000000  0.55200000  1
  H  H59  1  0.78140000  0.66530000  0.75400000  1
  H  H60  1  0.78140000  0.83470000  0.75400000  1
  H  H61  1  0.87080000  0.63330000  0.13630000  1
  H  H62  1  0.87080000  0.86670000  0.13630000  1
  H  H63  1  0.87160000  0.54350000  0.00860000  1
  H  H64  1  0.87160000  0.95650000  0.00860000  1
  H  H65  1  0.88100000  0.66150000  0.52150000  1
  H  H66  1  0.88100000  0.83850000  0.52150000  1
  H  H67  1  0.90600000  0.75000000  0.72050000  1
  H  H68  1  0.96030000  0.52670000  0.75230000  1
  H  H69  1  0.96030000  0.97330000  0.75230000  1
  H  H70  1  0.99920000  0.62450000  0.63150000  1
  H  H71  1  0.99920000  0.87550000  0.63150000  1
  C  C72  1  0.00550000  0.07044000  0.31159000  1
  C  C73  1  0.00550000  0.42956000  0.31159000  1
  C  C74  1  0.00970000  0.55902000  0.09351000  1
  C  C75  1  0.00970000  0.94098000  0.09351000  1
  C  C76  1  0.03520000  0.11695000  0.33549000  1
  C  C77  1  0.03520000  0.38305000  0.33549000  1
  C  C78  1  0.05730000  0.05912000  0.26355000  1
  C  C79  1  0.05730000  0.44088000  0.26355000  1
  C  C80  1  0.08120000  0.53243000  0.66261000  1
  C  C81  1  0.08120000  0.96757000  0.66261000  1
  C  C82  1  0.10880000  0.08599000  0.92600000  1
  C  C83  1  0.10880000  0.41401000  0.92600000  1
  C  C84  1  0.11520000  0.15282000  0.31145000  1
  C  C85  1  0.11520000  0.34718000  0.31145000  1
  C  C86  1  0.12480000  0.25000000  0.31393000  1
  C  C87  1  0.13390000  0.09464000  0.23886000  1
  C  C88  1  0.13390000  0.40536000  0.23886000  1
  C  C89  1  0.14660000  0.20264000  0.33826000  1
  C  C90  1  0.14660000  0.29736000  0.33826000  1
  C  C91  1  0.16120000  0.07225000  0.97271000  1
  C  C92  1  0.16120000  0.42775000  0.97271000  1
  C  C93  1  0.16180000  0.12595000  0.89711000  1
  C  C94  1  0.16180000  0.37405000  0.89711000  1
  C  C95  1  0.16420000  0.14120000  0.26280000  1
  C  C96  1  0.16420000  0.35880000  0.26280000  1
  C  C97  1  0.18180000  0.08686000  0.54352000  1
  C  C98  1  0.18180000  0.41314000  0.54352000  1
  C  C99  1  0.18770000  0.14205000  0.46469000  1
  C  C100  1  0.18770000  0.35795000  0.46469000  1
  C  C101  1  0.18960000  0.08017000  0.18737000  1
  C  C102  1  0.18960000  0.41983000  0.18737000  1
  C  C103  1  0.19470000  0.20283000  0.38911000  1
  C  C104  1  0.19470000  0.29717000  0.38911000  1
  C  C105  1  0.21540000  0.25000000  0.41343000  1
  C  C106  1  0.23670000  0.10095000  0.49244000  1
  C  C107  1  0.23670000  0.39905000  0.49244000  1
  C  C108  1  0.23760000  0.15553000  0.41652000  1
  C  C109  1  0.23760000  0.34447000  0.41652000  1
  C  C110  1  0.26240000  0.15553000  0.91652000  1
  C  C111  1  0.26240000  0.34447000  0.91652000  1
  C  C112  1  0.26330000  0.10095000  0.99244000  1
  C  C113  1  0.26330000  0.39905000  0.99244000  1
  C  C114  1  0.28460000  0.25000000  0.91343000  1
  C  C115  1  0.30530000  0.20283000  0.88911000  1
  C  C116  1  0.30530000  0.29717000  0.88911000  1
  C  C117  1  0.31040000  0.08017000  0.68737000  1
  C  C118  1  0.31040000  0.41983000  0.68737000  1
  C  C119  1  0.31230000  0.14205000  0.96469000  1
  C  C120  1  0.31230000  0.35795000  0.96469000  1
  C  C121  1  0.31820000  0.08686000  0.04352000  1
  C  C122  1  0.31820000  0.41314000  0.04352000  1
  C  C123  1  0.33580000  0.14120000  0.76280000  1
  C  C124  1  0.33580000  0.35880000  0.76280000  1
  C  C125  1  0.33820000  0.12595000  0.39711000  1
  C  C126  1  0.33820000  0.37405000  0.39711000  1
  C  C127  1  0.33880000  0.07225000  0.47271000  1
  C  C128  1  0.33880000  0.42775000  0.47271000  1
  C  C129  1  0.35340000  0.20264000  0.83826000  1
  C  C130  1  0.35340000  0.29736000  0.83826000  1
  C  C131  1  0.36610000  0.09464000  0.73886000  1
  C  C132  1  0.36610000  0.40536000  0.73886000  1
  C  C133  1  0.37520000  0.25000000  0.81393000  1
  C  C134  1  0.38480000  0.15282000  0.81145000  1
  C  C135  1  0.38480000  0.34718000  0.81145000  1
  C  C136  1  0.39120000  0.08599000  0.42600000  1
  C  C137  1  0.39120000  0.41401000  0.42600000  1
  C  C138  1  0.41880000  0.53243000  0.16261000  1
  C  C139  1  0.41880000  0.96757000  0.16261000  1
  C  C140  1  0.44270000  0.05912000  0.76355000  1
  C  C141  1  0.44270000  0.44088000  0.76355000  1
  C  C142  1  0.46480000  0.11695000  0.83549000  1
  C  C143  1  0.46480000  0.38305000  0.83549000  1
  C  C144  1  0.49030000  0.55902000  0.59351000  1
  C  C145  1  0.49030000  0.94098000  0.59351000  1
  C  C146  1  0.49450000  0.07044000  0.81159000  1
  C  C147  1  0.49450000  0.42956000  0.81159000  1
  C  C148  1  0.50550000  0.57044000  0.18841000  1
  C  C149  1  0.50550000  0.92956000  0.18841000  1
  C  C150  1  0.50970000  0.05902000  0.40649000  1
  C  C151  1  0.50970000  0.44098000  0.40649000  1
  C  C152  1  0.53520000  0.61695000  0.16451000  1
  C  C153  1  0.53520000  0.88305000  0.16451000  1
  C  C154  1  0.55730000  0.55912000  0.23645000  1
  C  C155  1  0.55730000  0.94088000  0.23645000  1
  C  C156  1  0.58120000  0.03243000  0.83739000  1
  C  C157  1  0.58120000  0.46757000  0.83739000  1
  C  C158  1  0.60880000  0.58599000  0.57400000  1
  C  C159  1  0.60880000  0.91401000  0.57400000  1
  C  C160  1  0.61520000  0.65282000  0.18855000  1
  C  C161  1  0.61520000  0.84718000  0.18855000  1
  C  C162  1  0.62480000  0.75000000  0.18607000  1
  C  C163  1  0.63390000  0.59464000  0.26114000  1
  C  C164  1  0.63390000  0.90536000  0.26114000  1
  C  C165  1  0.64660000  0.70264000  0.16174000  1
  C  C166  1  0.64660000  0.79736000  0.16174000  1
  C  C167  1  0.66120000  0.57225000  0.52729000  1
  C  C168  1  0.66120000  0.92775000  0.52729000  1
  C  C169  1  0.66180000  0.62595000  0.60289000  1
  C  C170  1  0.66180000  0.87405000  0.60289000  1
  C  C171  1  0.66420000  0.64120000  0.23720000  1
  C  C172  1  0.66420000  0.85880000  0.23720000  1
  C  C173  1  0.68180000  0.58686000  0.95648000  1
  C  C174  1  0.68180000  0.91314000  0.95648000  1
  C  C175  1  0.68770000  0.64205000  0.03531000  1
  C  C176  1  0.68770000  0.85795000  0.03531000  1
  C  C177  1  0.68960000  0.58017000  0.31263000  1
  C  C178  1  0.68960000  0.91983000  0.31263000  1
  C  C179  1  0.69470000  0.70283000  0.11089000  1
  C  C180  1  0.69470000  0.79717000  0.11089000  1
  C  C181  1  0.71540000  0.75000000  0.08657000  1
  C  C182  1  0.73670000  0.60095000  0.00756000  1
  C  C183  1  0.73670000  0.89905000  0.00756000  1
  C  C184  1  0.73760000  0.65553000  0.08348000  1
  C  C185  1  0.73760000  0.84447000  0.08348000  1
  C  C186  1  0.76240000  0.65553000  0.58348000  1
  C  C187  1  0.76240000  0.84447000  0.58348000  1
  C  C188  1  0.76330000  0.60095000  0.50756000  1
  C  C189  1  0.76330000  0.89905000  0.50756000  1
  C  C190  1  0.78460000  0.75000000  0.58657000  1
  C  C191  1  0.80530000  0.70283000  0.61089000  1
  C  C192  1  0.80530000  0.79717000  0.61089000  1
  C  C193  1  0.81040000  0.58017000  0.81263000  1
  C  C194  1  0.81040000  0.91983000  0.81263000  1
  C  C195  1  0.81230000  0.64205000  0.53531000  1
  C  C196  1  0.81230000  0.85795000  0.53531000  1
  C  C197  1  0.81820000  0.58686000  0.45648000  1
  C  C198  1  0.81820000  0.91314000  0.45648000  1
  C  C199  1  0.83580000  0.64120000  0.73720000  1
  C  C200  1  0.83580000  0.85880000  0.73720000  1
  C  C201  1  0.83820000  0.62595000  0.10289000  1
  C  C202  1  0.83820000  0.87405000  0.10289000  1
  C  C203  1  0.83880000  0.57225000  0.02729000  1
  C  C204  1  0.83880000  0.92775000  0.02729000  1
  C  C205  1  0.85340000  0.70264000  0.66174000  1
  C  C206  1  0.85340000  0.79736000  0.66174000  1
  C  C207  1  0.86610000  0.59464000  0.76114000  1
  C  C208  1  0.86610000  0.90536000  0.76114000  1
  C  C209  1  0.87520000  0.75000000  0.68607000  1
  C  C210  1  0.88480000  0.65282000  0.68855000  1
  C  C211  1  0.88480000  0.84718000  0.68855000  1
  C  C212  1  0.89120000  0.58599000  0.07400000  1
  C  C213  1  0.89120000  0.91401000  0.07400000  1
  C  C214  1  0.91880000  0.03243000  0.33739000  1
  C  C215  1  0.91880000  0.46757000  0.33739000  1
  C  C216  1  0.94270000  0.55912000  0.73645000  1
  C  C217  1  0.94270000  0.94088000  0.73645000  1
  C  C218  1  0.96480000  0.61695000  0.66451000  1
  C  C219  1  0.96480000  0.88305000  0.66451000  1
  C  C220  1  0.99030000  0.05902000  0.90649000  1
  C  C221  1  0.99030000  0.44098000  0.90649000  1
  C  C222  1  0.99450000  0.57044000  0.68841000  1
  C  C223  1  0.99450000  0.92956000  0.68841000  1
  O  O224  1  0.04910000  0.56849000  0.13722000  1
  O  O225  1  0.04910000  0.93151000  0.13722000  1
  O  O226  1  0.06400000  0.52703000  0.06399000  1
  O  O227  1  0.06400000  0.97297000  0.06399000  1
  O  O228  1  0.07370000  0.01454000  0.67704000  1
  O  O229  1  0.07370000  0.48546000  0.67704000  1
  O  O230  1  0.10730000  0.11810000  0.56551000  1
  O  O231  1  0.10730000  0.38190000  0.56551000  1
  O  O232  1  0.13990000  0.04253000  0.16474000  1
  O  O233  1  0.13990000  0.45747000  0.16474000  1
  O  O234  1  0.15760000  0.54993000  0.62985000  1
  O  O235  1  0.15760000  0.95007000  0.62985000  1
  O  O236  1  0.20590000  0.04352000  0.56347000  1
  O  O237  1  0.20590000  0.45648000  0.56347000  1
  O  O238  1  0.21760000  0.10707000  0.67104000  1
  O  O239  1  0.21760000  0.39293000  0.67104000  1
  O  O240  1  0.28240000  0.10707000  0.17104000  1
  O  O241  1  0.28240000  0.39293000  0.17104000  1
  O  O242  1  0.29410000  0.04352000  0.06347000  1
  O  O243  1  0.29410000  0.45648000  0.06347000  1
  O  O244  1  0.34240000  0.54993000  0.12985000  1
  O  O245  1  0.34240000  0.95007000  0.12985000  1
  O  O246  1  0.36010000  0.04253000  0.66474000  1
  O  O247  1  0.36010000  0.45747000  0.66474000  1
  O  O248  1  0.39270000  0.11810000  0.06551000  1
  O  O249  1  0.39270000  0.38190000  0.06551000  1
  O  O250  1  0.42630000  0.01454000  0.17704000  1
  O  O251  1  0.42630000  0.48546000  0.17704000  1
  O  O252  1  0.43600000  0.52703000  0.56399000  1
  O  O253  1  0.43600000  0.97297000  0.56399000  1
  O  O254  1  0.45090000  0.56849000  0.63722000  1
  O  O255  1  0.45090000  0.93151000  0.63722000  1
  O  O256  1  0.54910000  0.06849000  0.36278000  1
  O  O257  1  0.54910000  0.43151000  0.36278000  1
  O  O258  1  0.56400000  0.02703000  0.43601000  1
  O  O259  1  0.56400000  0.47297000  0.43601000  1
  O  O260  1  0.57370000  0.51454000  0.82296000  1
  O  O261  1  0.57370000  0.98546000  0.82296000  1
  O  O262  1  0.60730000  0.61810000  0.93449000  1
  O  O263  1  0.60730000  0.88190000  0.93449000  1
  O  O264  1  0.63990000  0.54253000  0.33526000  1
  O  O265  1  0.63990000  0.95747000  0.33526000  1
  O  O266  1  0.65760000  0.04993000  0.87015000  1
  O  O267  1  0.65760000  0.45007000  0.87015000  1
  O  O268  1  0.70590000  0.54352000  0.93653000  1
  O  O269  1  0.70590000  0.95648000  0.93653000  1
  O  O270  1  0.71760000  0.60707000  0.82896000  1
  O  O271  1  0.71760000  0.89293000  0.82896000  1
  O  O272  1  0.78240000  0.60707000  0.32896000  1
  O  O273  1  0.78240000  0.89293000  0.32896000  1
  O  O274  1  0.79410000  0.54352000  0.43653000  1
  O  O275  1  0.79410000  0.95648000  0.43653000  1
  O  O276  1  0.84240000  0.04993000  0.37015000  1
  O  O277  1  0.84240000  0.45007000  0.37015000  1
  O  O278  1  0.86010000  0.54253000  0.83526000  1
  O  O279  1  0.86010000  0.95747000  0.83526000  1
  O  O280  1  0.89270000  0.61810000  0.43449000  1
  O  O281  1  0.89270000  0.88190000  0.43449000  1
  O  O282  1  0.92630000  0.51454000  0.32296000  1
  O  O283  1  0.92630000  0.98546000  0.32296000  1
  O  O284  1  0.93600000  0.02703000  0.93601000  1
  O  O285  1  0.93600000  0.47297000  0.93601000  1
  O  O286  1  0.95090000  0.06849000  0.86278000  1
  O  O287  1  0.95090000  0.43151000  0.86278000  1
