# generated using pymatgen
data_SmH6(C2O)8
_symmetry_space_group_name_H-M   'P 1'
_cell_length_a   11.64700000
_cell_length_b   12.24700000
_cell_length_c   13.60400000
_cell_angle_alpha   65.01000000
_cell_angle_beta   67.88000000
_cell_angle_gamma   88.32000000
_symmetry_Int_Tables_number   1
_chemical_formula_structural   SmH6(C2O)8
_chemical_formula_sum   'Sm3 H18 C48 O24'
_cell_volume   1609.79298712
_cell_formula_units_Z   3
loop_
 _symmetry_equiv_pos_site_id
 _symmetry_equiv_pos_as_xyz
  1  'x, y, z'
loop_
 _atom_site_type_symbol
 _atom_site_label
 _atom_site_symmetry_multiplicity
 _atom_site_fract_x
 _atom_site_fract_y
 _atom_site_fract_z
 _atom_site_occupancy
  Sm  Sm0  1  0.42948000  0.82883000  0.32814000  1
  Sm  Sm1  1  0.50000000  0.00000000  0.50000000  1
  Sm  Sm2  1  0.57053000  0.17117000  0.67186000  1
  H  H3  1  0.06400000  0.72170000  0.57360000  1
  H  H4  1  0.07650000  0.00380000  0.65040000  1
  H  H5  1  0.10090000  0.45330000  0.34210000  1
  H  H6  1  0.24590000  0.13030000  0.32620000  1
  H  H7  1  0.27150000  0.17020000  0.47050000  1
  H  H8  1  0.36030000  0.49230000  0.45660000  1
  H  H9  1  0.48910000  0.89700000  0.91570000  1
  H  H10  1  0.48980000  0.55530000  0.14180000  1
  H  H11  1  0.49790000  0.62400000  0.82390000  1
  H  H12  1  0.50210000  0.37600000  0.17610000  1
  H  H13  1  0.51020000  0.44470000  0.85820000  1
  H  H14  1  0.51090000  0.10300000  0.08430000  1
  H  H15  1  0.63970000  0.50770000  0.54340000  1
  H  H16  1  0.72850000  0.82980000  0.52950000  1
  H  H17  1  0.75410000  0.86970000  0.67380000  1
  H  H18  1  0.89910000  0.54670000  0.65790000  1
  H  H19  1  0.92350000  0.99620000  0.34960000  1
  H  H20  1  0.93600000  0.27830000  0.42640000  1
  C  C21  1  0.02400000  0.77900000  0.59670000  1
  C  C22  1  0.03170000  0.94860000  0.64250000  1
  C  C23  1  0.09180000  0.86270000  0.60720000  1
  C  C24  1  0.09280000  0.04860000  0.33450000  1
  C  C25  1  0.10280000  0.21920000  0.37960000  1
  C  C26  1  0.15550000  0.94820000  0.30880000  1
  C  C27  1  0.15850000  0.41970000  0.37450000  1
  C  C28  1  0.16080000  0.13190000  0.34380000  1
  C  C29  1  0.17520000  0.29810000  0.40050000  1
  C  C30  1  0.20830000  0.62160000  0.37000000  1
  C  C31  1  0.22740000  0.48990000  0.39690000  1
  C  C32  1  0.23090000  0.87250000  0.56780000  1
  C  C33  1  0.26050000  0.25120000  0.45080000  1
  C  C34  1  0.31340000  0.44330000  0.44390000  1
  C  C35  1  0.33000000  0.32230000  0.47250000  1
  C  C36  1  0.41980000  0.26800000  0.52990000  1
  C  C37  1  0.47520000  0.77050000  0.13640000  1
  C  C38  1  0.48590000  0.73110000  0.04220000  1
  C  C39  1  0.48910000  0.81480000  0.93380000  1
  C  C40  1  0.49090000  0.60900000  0.06850000  1
  C  C41  1  0.49100000  0.85570000  0.73500000  1
  C  C42  1  0.49230000  0.77270000  0.85240000  1
  C  C43  1  0.49620000  0.65000000  0.87950000  1
  C  C44  1  0.49770000  0.56450000  0.98640000  1
  C  C45  1  0.50230000  0.43550000  0.01360000  1
  C  C46  1  0.50380000  0.35000000  0.12050000  1
  C  C47  1  0.50770000  0.22730000  0.14760000  1
  C  C48  1  0.50900000  0.14430000  0.26500000  1
  C  C49  1  0.50910000  0.39100000  0.93150000  1
  C  C50  1  0.51090000  0.18520000  0.06620000  1
  C  C51  1  0.51410000  0.26890000  0.95780000  1
  C  C52  1  0.52480000  0.22950000  0.86360000  1
  C  C53  1  0.58020000  0.73200000  0.47010000  1
  C  C54  1  0.67000000  0.67770000  0.52750000  1
  C  C55  1  0.68660000  0.55670000  0.55610000  1
  C  C56  1  0.73950000  0.74880000  0.54920000  1
  C  C57  1  0.76910000  0.12750000  0.43220000  1
  C  C58  1  0.77260000  0.51010000  0.60310000  1
  C  C59  1  0.79170000  0.37840000  0.63000000  1
  C  C60  1  0.82480000  0.70190000  0.59950000  1
  C  C61  1  0.83920000  0.86810000  0.65620000  1
  C  C62  1  0.84150000  0.58030000  0.62550000  1
  C  C63  1  0.84450000  0.05180000  0.69120000  1
  C  C64  1  0.89720000  0.78080000  0.62040000  1
  C  C65  1  0.90720000  0.95140000  0.66550000  1
  C  C66  1  0.90820000  0.13730000  0.39280000  1
  C  C67  1  0.96830000  0.05140000  0.35750000  1
  C  C68  1  0.97600000  0.22100000  0.40330000  1
  O  O69  1  0.08260000  0.86890000  0.31030000  1
  O  O70  1  0.14200000  0.67020000  0.31320000  1
  O  O71  1  0.26030000  0.67450000  0.40640000  1
  O  O72  1  0.26480000  0.94340000  0.29490000  1
  O  O73  1  0.28240000  0.95220000  0.58040000  1
  O  O74  1  0.29070000  0.80800000  0.52210000  1
  O  O75  1  0.43270000  0.15770000  0.55790000  1
  O  O76  1  0.44000000  0.87080000  0.12870000  1
  O  O77  1  0.45970000  0.81000000  0.68030000  1
  O  O78  1  0.47480000  0.33190000  0.55560000  1
  O  O79  1  0.47510000  0.03070000  0.31170000  1
  O  O80  1  0.49960000  0.69770000  0.22400000  1
  O  O81  1  0.50040000  0.30230000  0.77600000  1
  O  O82  1  0.52490000  0.96930000  0.68830000  1
  O  O83  1  0.52520000  0.66810000  0.44440000  1
  O  O84  1  0.54030000  0.19000000  0.31970000  1
  O  O85  1  0.56000000  0.12920000  0.87130000  1
  O  O86  1  0.56730000  0.84230000  0.44210000  1
  O  O87  1  0.70930000  0.19200000  0.47790000  1
  O  O88  1  0.71760000  0.04780000  0.41960000  1
  O  O89  1  0.73520000  0.05660000  0.70510000  1
  O  O90  1  0.73970000  0.32550000  0.59360000  1
  O  O91  1  0.85800000  0.32980000  0.68680000  1
  O  O92  1  0.91740000  0.13110000  0.68970000  1
