# generated using pymatgen
data_HoAgH11C14(NO3)2
_symmetry_space_group_name_H-M   'P 1'
_cell_length_a   7.95730000
_cell_length_b   14.97810000
_cell_length_c   16.21070000
_cell_angle_alpha   90.00000000
_cell_angle_beta   92.06900000
_cell_angle_gamma   90.00000000
_symmetry_Int_Tables_number   1
_chemical_formula_structural   HoAgH11C14(NO3)2
_chemical_formula_sum   'Ho4 Ag4 H44 C56 N8 O24'
_cell_volume   1930.81651983
_cell_formula_units_Z   4
loop_
 _symmetry_equiv_pos_site_id
 _symmetry_equiv_pos_as_xyz
  1  'x, y, z'
loop_
 _atom_site_type_symbol
 _atom_site_label
 _atom_site_symmetry_multiplicity
 _atom_site_fract_x
 _atom_site_fract_y
 _atom_site_fract_z
 _atom_site_occupancy
  Ho  Ho0  1  0.94987000  0.38374000  0.54522000  1
  Ho  Ho1  1  0.44987000  0.11626000  0.54522000  1
  Ho  Ho2  1  0.55013000  0.88374000  0.45478000  1
  Ho  Ho3  1  0.05013000  0.61626000  0.45478000  1
  Ag  Ag4  1  0.10021000  0.75929000  0.97302000  1
  Ag  Ag5  1  0.60021000  0.74071000  0.97302000  1
  Ag  Ag6  1  0.39979000  0.25929000  0.02698000  1
  Ag  Ag7  1  0.89979000  0.24071000  0.02698000  1
  H  H8  1  0.23950000  0.92360000  0.89980000  1
  H  H9  1  0.73950000  0.57640000  0.89980000  1
  H  H10  1  0.52450000  0.38210000  0.89390000  1
  H  H11  1  0.02450000  0.11790000  0.89390000  1
  H  H12  1  0.99520000  0.37880000  0.89180000  1
  H  H13  1  0.49520000  0.12120000  0.89180000  1
  H  H14  1  0.67620000  0.80710000  0.79070000  1
  H  H15  1  0.17620000  0.69290000  0.79070000  1
  H  H16  1  0.32280000  0.98750000  0.77930000  1
  H  H17  1  0.82280000  0.51250000  0.77930000  1
  H  H18  1  0.63350000  0.38280000  0.76400000  1
  H  H19  1  0.13350000  0.11720000  0.76400000  1
  H  H20  1  0.09910000  0.38460000  0.76120000  1
  H  H21  1  0.59910000  0.11540000  0.76120000  1
  H  H22  1  0.93470000  0.94570000  0.67270000  1
  H  H23  1  0.43470000  0.55430000  0.67270000  1
  H  H24  1  0.26130000  0.75060000  0.66770000  1
  H  H25  1  0.76130000  0.74940000  0.66770000  1
  H  H26  1  0.34950000  0.46010000  0.66490000  1
  H  H27  1  0.84950000  0.03990000  0.66490000  1
  H  H28  1  0.50290000  0.48360000  0.61090000  1
  H  H29  1  0.00290000  0.01640000  0.61090000  1
  H  H30  1  0.99710000  0.98360000  0.38910000  1
  H  H31  1  0.49710000  0.51640000  0.38910000  1
  H  H32  1  0.15050000  0.96010000  0.33510000  1
  H  H33  1  0.65050000  0.53990000  0.33510000  1
  H  H34  1  0.23870000  0.25060000  0.33230000  1
  H  H35  1  0.73870000  0.24940000  0.33230000  1
  H  H36  1  0.56530000  0.44570000  0.32730000  1
  H  H37  1  0.06530000  0.05430000  0.32730000  1
  H  H38  1  0.40090000  0.88460000  0.23880000  1
  H  H39  1  0.90090000  0.61540000  0.23880000  1
  H  H40  1  0.86650000  0.88280000  0.23600000  1
  H  H41  1  0.36650000  0.61720000  0.23600000  1
  H  H42  1  0.17720000  0.48750000  0.22070000  1
  H  H43  1  0.67720000  0.01250000  0.22070000  1
  H  H44  1  0.82380000  0.30710000  0.20930000  1
  H  H45  1  0.32380000  0.19290000  0.20930000  1
  H  H46  1  0.50480000  0.87880000  0.10820000  1
  H  H47  1  0.00480000  0.62120000  0.10820000  1
  H  H48  1  0.97550000  0.88210000  0.10610000  1
  H  H49  1  0.47550000  0.61790000  0.10610000  1
  H  H50  1  0.26050000  0.42360000  0.10020000  1
  H  H51  1  0.76050000  0.07640000  0.10020000  1
  C  C52  1  0.54060000  0.32810000  0.86700000  1
  C  C53  1  0.04060000  0.17190000  0.86700000  1
  C  C54  1  0.02280000  0.32580000  0.86560000  1
  C  C55  1  0.52280000  0.17420000  0.86560000  1
  C  C56  1  0.24280000  0.88870000  0.85240000  1
  C  C57  1  0.74280000  0.61130000  0.85240000  1
  C  C58  1  0.60530000  0.32900000  0.78870000  1
  C  C59  1  0.10530000  0.17100000  0.78870000  1
  C  C60  1  0.20600000  0.75280000  0.78810000  1
  C  C61  1  0.70600000  0.74720000  0.78810000  1
  C  C62  1  0.08550000  0.32980000  0.78710000  1
  C  C63  1  0.58550000  0.17020000  0.78710000  1
  C  C64  1  0.29390000  0.92740000  0.78040000  1
  C  C65  1  0.79390000  0.57260000  0.78040000  1
  C  C66  1  0.12780000  0.25140000  0.74730000  1
  C  C67  1  0.62780000  0.24860000  0.74730000  1
  C  C68  1  0.25700000  0.78690000  0.71420000  1
  C  C69  1  0.75700000  0.71310000  0.71420000  1
  C  C70  1  0.30200000  0.87650000  0.71000000  1
  C  C71  1  0.80200000  0.62350000  0.71000000  1
  C  C72  1  0.19770000  0.25090000  0.66240000  1
  C  C73  1  0.69770000  0.24910000  0.66240000  1
  C  C74  1  0.90390000  0.99320000  0.63530000  1
  C  C75  1  0.40390000  0.50680000  0.63530000  1
  C  C76  1  0.36040000  0.91870000  0.63170000  1
  C  C77  1  0.86040000  0.58130000  0.63170000  1
  C  C78  1  0.78640000  0.95830000  0.56910000  1
  C  C79  1  0.28640000  0.54170000  0.56910000  1
  C  C80  1  0.71360000  0.45830000  0.43090000  1
  C  C81  1  0.21360000  0.04170000  0.43090000  1
  C  C82  1  0.13960000  0.41870000  0.36830000  1
  C  C83  1  0.63960000  0.08130000  0.36830000  1
  C  C84  1  0.59610000  0.49320000  0.36470000  1
  C  C85  1  0.09610000  0.00680000  0.36470000  1
  C  C86  1  0.30230000  0.75090000  0.33760000  1
  C  C87  1  0.80230000  0.74910000  0.33760000  1
  C  C88  1  0.19800000  0.37650000  0.29000000  1
  C  C89  1  0.69800000  0.12350000  0.29000000  1
  C  C90  1  0.24300000  0.28690000  0.28580000  1
  C  C91  1  0.74300000  0.21310000  0.28580000  1
  C  C92  1  0.37220000  0.75140000  0.25270000  1
  C  C93  1  0.87220000  0.74860000  0.25270000  1
  C  C94  1  0.20610000  0.42740000  0.21960000  1
  C  C95  1  0.70610000  0.07260000  0.21960000  1
  C  C96  1  0.41450000  0.82980000  0.21290000  1
  C  C97  1  0.91450000  0.67020000  0.21290000  1
  C  C98  1  0.29400000  0.25280000  0.21190000  1
  C  C99  1  0.79400000  0.24720000  0.21190000  1
  C  C100  1  0.89470000  0.82900000  0.21130000  1
  C  C101  1  0.39470000  0.67100000  0.21130000  1
  C  C102  1  0.25720000  0.38870000  0.14760000  1
  C  C103  1  0.75720000  0.11130000  0.14760000  1
  C  C104  1  0.47720000  0.82580000  0.13440000  1
  C  C105  1  0.97720000  0.67420000  0.13440000  1
  C  C106  1  0.95940000  0.82810000  0.13300000  1
  C  C107  1  0.45940000  0.67190000  0.13300000  1
  N  N108  1  0.50030000  0.25170000  0.90521000  1
  N  N109  1  0.00030000  0.24830000  0.90521000  1
  N  N110  1  0.19770000  0.80290000  0.85670000  1
  N  N111  1  0.69770000  0.69710000  0.85670000  1
  N  N112  1  0.30230000  0.30290000  0.14330000  1
  N  N113  1  0.80230000  0.19710000  0.14330000  1
  N  N114  1  0.99970000  0.75170000  0.09479000  1
  N  N115  1  0.49970000  0.74830000  0.09479000  1
  O  O116  1  0.78110000  0.31544000  0.64109000  1
  O  O117  1  0.28110000  0.18456000  0.64109000  1
  O  O118  1  0.85870000  0.49704000  0.62904000  1
  O  O119  1  0.35870000  0.00296000  0.62904000  1
  O  O120  1  0.16850000  0.31890000  0.61712000  1
  O  O121  1  0.66850000  0.18110000  0.61712000  1
  O  O122  1  0.40420000  0.86697000  0.57479000  1
  O  O123  1  0.90420000  0.63303000  0.57479000  1
  O  O124  1  0.15700000  0.49734000  0.54864000  1
  O  O125  1  0.65700000  0.00266000  0.54864000  1
  O  O126  1  0.81250000  0.88475000  0.53407000  1
  O  O127  1  0.31250000  0.61525000  0.53407000  1
  O  O128  1  0.68750000  0.38475000  0.46593000  1
  O  O129  1  0.18750000  0.11525000  0.46593000  1
  O  O130  1  0.34300000  0.99734000  0.45136000  1
  O  O131  1  0.84300000  0.50266000  0.45136000  1
  O  O132  1  0.09580000  0.36697000  0.42521000  1
  O  O133  1  0.59580000  0.13303000  0.42521000  1
  O  O134  1  0.33150000  0.81890000  0.38288000  1
  O  O135  1  0.83150000  0.68110000  0.38288000  1
  O  O136  1  0.64130000  0.99704000  0.37096000  1
  O  O137  1  0.14130000  0.50296000  0.37096000  1
  O  O138  1  0.71890000  0.81544000  0.35891000  1
  O  O139  1  0.21890000  0.68456000  0.35891000  1
