# generated using pymatgen
data_Cd3H6C18(NO2)4
_symmetry_space_group_name_H-M   'P 1'
_cell_length_a   9.16830000
_cell_length_b   9.16830000
_cell_length_c   16.02390000
_cell_angle_alpha   73.89790000
_cell_angle_beta   73.89790000
_cell_angle_gamma   72.32300000
_symmetry_Int_Tables_number   1
_chemical_formula_structural   Cd3H6C18(NO2)4
_chemical_formula_sum   'Cd6 H12 C36 N8 O16'
_cell_volume   1205.23434354
_cell_formula_units_Z   2
loop_
 _symmetry_equiv_pos_site_id
 _symmetry_equiv_pos_as_xyz
  1  'x, y, z'
loop_
 _atom_site_type_symbol
 _atom_site_label
 _atom_site_symmetry_multiplicity
 _atom_site_fract_x
 _atom_site_fract_y
 _atom_site_fract_z
 _atom_site_occupancy
  Cd  Cd0  1  0.01399000  0.98601000  0.75000000  1
  Cd  Cd1  1  0.66863000  0.75199000  0.15939000  1
  Cd  Cd2  1  0.75199000  0.66863000  0.65939000  1
  Cd  Cd3  1  0.24801000  0.33137000  0.34061000  1
  Cd  Cd4  1  0.33137000  0.24801000  0.84061000  1
  Cd  Cd5  1  0.98601000  0.01399000  0.25000000  1
  H  H6  1  0.88490000  0.97110000  0.47690000  1
  H  H7  1  0.97110000  0.88490000  0.97690000  1
  H  H8  1  0.39340000  0.84660000  0.75830000  1
  H  H9  1  0.63360000  0.73120000  0.47260000  1
  H  H10  1  0.73120000  0.63360000  0.97260000  1
  H  H11  1  0.15340000  0.60660000  0.74170000  1
  H  H12  1  0.84660000  0.39340000  0.25830000  1
  H  H13  1  0.26880000  0.36640000  0.02740000  1
  H  H14  1  0.36640000  0.26880000  0.52740000  1
  H  H15  1  0.60660000  0.15340000  0.24170000  1
  H  H16  1  0.02890000  0.11510000  0.02310000  1
  H  H17  1  0.11510000  0.02890000  0.52310000  1
  C  C18  1  0.19190000  0.99070000  0.36250000  1
  C  C19  1  0.21830000  0.97010000  0.51290000  1
  C  C20  1  0.29210000  0.93630000  0.43070000  1
  C  C21  1  0.30280000  0.91340000  0.58080000  1
  C  C22  1  0.38880000  0.85380000  0.70000000  1
  C  C23  1  0.44750000  0.84410000  0.41440000  1
  C  C24  1  0.45750000  0.82650000  0.56510000  1
  C  C25  1  0.00930000  0.80810000  0.13750000  1
  C  C26  1  0.52780000  0.80560000  0.32560000  1
  C  C27  1  0.53060000  0.79040000  0.48250000  1
  C  C28  1  0.02990000  0.78170000  0.98710000  1
  C  C29  1  0.06370000  0.70790000  0.06930000  1
  C  C30  1  0.08660000  0.69720000  0.91920000  1
  C  C31  1  0.14620000  0.61120000  0.80000000  1
  C  C32  1  0.15590000  0.55250000  0.08560000  1
  C  C33  1  0.17350000  0.54250000  0.93490000  1
  C  C34  1  0.79040000  0.53060000  0.98250000  1
  C  C35  1  0.80560000  0.52780000  0.82560000  1
  C  C36  1  0.19440000  0.47220000  0.17440000  1
  C  C37  1  0.20960000  0.46940000  0.01750000  1
  C  C38  1  0.82650000  0.45750000  0.06510000  1
  C  C39  1  0.84410000  0.44750000  0.91440000  1
  C  C40  1  0.85380000  0.38880000  0.20000000  1
  C  C41  1  0.91340000  0.30280000  0.08080000  1
  C  C42  1  0.93630000  0.29210000  0.93070000  1
  C  C43  1  0.97010000  0.21830000  0.01290000  1
  C  C44  1  0.46940000  0.20960000  0.51750000  1
  C  C45  1  0.47220000  0.19440000  0.67440000  1
  C  C46  1  0.99070000  0.19190000  0.86250000  1
  C  C47  1  0.54250000  0.17350000  0.43490000  1
  C  C48  1  0.55250000  0.15590000  0.58560000  1
  C  C49  1  0.61120000  0.14620000  0.30000000  1
  C  C50  1  0.69720000  0.08660000  0.41920000  1
  C  C51  1  0.70790000  0.06370000  0.56930000  1
  C  C52  1  0.78170000  0.02990000  0.48710000  1
  C  C53  1  0.80810000  0.00930000  0.63750000  1
  N  N54  1  0.25950000  0.92930000  0.66810000  1
  N  N55  1  0.51070000  0.78970000  0.64250000  1
  N  N56  1  0.07070000  0.74050000  0.83190000  1
  N  N57  1  0.78970000  0.51070000  0.14250000  1
  N  N58  1  0.21030000  0.48930000  0.85750000  1
  N  N59  1  0.92930000  0.25950000  0.16810000  1
  N  N60  1  0.48930000  0.21030000  0.35750000  1
  N  N61  1  0.74050000  0.07070000  0.33190000  1
  O  O62  1  0.48280000  0.89460000  0.25730000  1
  O  O63  1  0.15330000  0.88830000  0.33980000  1
  O  O64  1  0.85680000  0.86520000  0.66720000  1
  O  O65  1  0.86520000  0.85680000  0.16720000  1
  O  O66  1  0.11170000  0.84670000  0.16020000  1
  O  O67  1  0.64200000  0.68680000  0.32120000  1
  O  O68  1  0.68680000  0.64200000  0.82120000  1
  O  O69  1  0.10540000  0.51720000  0.24270000  1
  O  O70  1  0.89460000  0.48280000  0.75730000  1
  O  O71  1  0.31320000  0.35800000  0.17880000  1
  O  O72  1  0.35800000  0.31320000  0.67880000  1
  O  O73  1  0.88830000  0.15330000  0.83980000  1
  O  O74  1  0.13480000  0.14320000  0.83280000  1
  O  O75  1  0.14320000  0.13480000  0.33280000  1
  O  O76  1  0.84670000  0.11170000  0.66020000  1
  O  O77  1  0.51720000  0.10540000  0.74270000  1
