# generated using pymatgen
data_EuCu4H24C36I4(NO2)3
_symmetry_space_group_name_H-M   'P 1'
_cell_length_a   9.66890000
_cell_length_b   16.71600000
_cell_length_c   21.27700000
_cell_angle_alpha   104.23000000
_cell_angle_beta   100.42000000
_cell_angle_gamma   96.86000000
_symmetry_Int_Tables_number   1
_chemical_formula_structural   EuCu4H24C36I4(NO2)3
_chemical_formula_sum   'Eu2 Cu8 H48 C72 I8 N6 O12'
_cell_volume   3229.59670692
_cell_formula_units_Z   2
loop_
 _symmetry_equiv_pos_site_id
 _symmetry_equiv_pos_as_xyz
  1  'x, y, z'
loop_
 _atom_site_type_symbol
 _atom_site_label
 _atom_site_symmetry_multiplicity
 _atom_site_fract_x
 _atom_site_fract_y
 _atom_site_fract_z
 _atom_site_occupancy
  Eu  Eu0  1  0.27613000  0.51536000  0.99816000  1
  Eu  Eu1  1  0.72387000  0.48464000  0.00184000  1
  Cu  Cu2  1  0.01404000  0.94278000  0.54053000  1
  Cu  Cu3  1  0.03729000  0.18169000  0.40008000  1
  Cu  Cu4  1  0.17922000  0.05327000  0.37734000  1
  Cu  Cu5  1  0.24459000  0.17259000  0.49723000  1
  Cu  Cu6  1  0.75541000  0.82741000  0.50277000  1
  Cu  Cu7  1  0.82078000  0.94673000  0.62266000  1
  Cu  Cu8  1  0.96271000  0.81831000  0.59992000  1
  Cu  Cu9  1  0.98596000  0.05722000  0.45947000  1
  H  H10  1  0.03030000  0.31110000  0.32420000  1
  H  H11  1  0.07210000  0.61990000  0.36400000  1
  H  H12  1  0.11380000  0.23630000  0.70000000  1
  H  H13  1  0.12430000  0.62330000  0.72930000  1
  H  H14  1  0.13560000  0.45620000  0.70900000  1
  H  H15  1  0.13680000  0.88140000  0.27640000  1
  H  H16  1  0.14190000  0.50060000  0.82100000  1
  H  H17  1  0.17940000  0.32920000  0.80320000  1
  H  H18  1  0.24270000  0.76100000  0.39850000  1
  H  H19  1  0.26750000  0.61030000  0.21180000  1
  H  H20  1  0.26840000  0.80990000  0.62160000  1
  H  H21  1  0.26960000  0.15200000  0.66180000  1
  H  H22  1  0.27600000  0.78950000  0.23260000  1
  H  H23  1  0.28170000  0.41900000  0.25670000  1
  H  H24  1  0.30720000  0.44290000  0.15790000  1
  H  H25  1  0.31470000  0.63760000  0.82310000  1
  H  H26  1  0.33360000  0.32160000  0.61890000  1
  H  H27  1  0.37810000  0.04330000  0.65580000  1
  H  H28  1  0.43160000  0.73560000  0.17280000  1
  H  H29  1  0.43580000  0.74790000  0.67180000  1
  H  H30  1  0.44860000  0.83110000  0.47000000  1
  H  H31  1  0.45580000  0.36740000  0.31740000  1
  H  H32  1  0.46370000  0.60190000  0.30630000  1
  H  H33  1  0.47530000  0.04470000  0.37850000  1
  H  H34  1  0.52470000  0.95530000  0.62150000  1
  H  H35  1  0.53630000  0.39810000  0.69370000  1
  H  H36  1  0.54420000  0.63260000  0.68260000  1
  H  H37  1  0.55140000  0.16890000  0.53000000  1
  H  H38  1  0.56420000  0.25210000  0.32820000  1
  H  H39  1  0.56840000  0.26440000  0.82720000  1
  H  H40  1  0.62190000  0.95670000  0.34420000  1
  H  H41  1  0.66640000  0.67840000  0.38110000  1
  H  H42  1  0.68530000  0.36240000  0.17690000  1
  H  H43  1  0.69280000  0.55710000  0.84210000  1
  H  H44  1  0.71830000  0.58100000  0.74330000  1
  H  H45  1  0.72400000  0.21050000  0.76740000  1
  H  H46  1  0.73040000  0.84800000  0.33820000  1
  H  H47  1  0.73160000  0.19010000  0.37840000  1
  H  H48  1  0.73250000  0.38970000  0.78820000  1
  H  H49  1  0.75730000  0.23900000  0.60150000  1
  H  H50  1  0.82060000  0.67080000  0.19680000  1
  H  H51  1  0.85810000  0.49940000  0.17900000  1
  H  H52  1  0.86320000  0.11860000  0.72360000  1
  H  H53  1  0.86440000  0.54380000  0.29100000  1
  H  H54  1  0.87570000  0.37670000  0.27070000  1
  H  H55  1  0.88620000  0.76370000  0.30000000  1
  H  H56  1  0.92790000  0.38010000  0.63600000  1
  H  H57  1  0.96970000  0.68890000  0.67580000  1
  C  C58  1  0.05480000  0.44340000  0.72500000  1
  C  C59  1  0.05790000  0.52550000  0.11060000  1
  C  C60  1  0.05880000  0.46940000  0.79160000  1
  C  C61  1  0.06240000  0.55110000  0.18460000  1
  C  C62  1  0.06550000  0.70140000  0.67490000  1
  C  C63  1  0.07090000  0.60230000  0.31890000  1
  C  C64  1  0.15820000  0.66190000  0.70840000  1
  C  C65  1  0.18750000  0.59660000  0.22810000  1
  C  C66  1  0.19360000  0.62210000  0.29710000  1
  C  C67  1  0.20390000  0.24060000  0.72630000  1
  C  C68  1  0.23560000  0.89650000  0.28910000  1
  C  C69  1  0.23880000  0.77130000  0.64350000  1
  C  C70  1  0.24360000  0.29630000  0.78760000  1
  C  C71  1  0.29740000  0.19070000  0.70340000  1
  C  C72  1  0.30110000  0.68010000  0.71060000  1
  C  C73  1  0.31900000  0.84040000  0.26310000  1
  C  C74  1  0.32630000  0.67150000  0.34530000  1
  C  C75  1  0.32760000  0.74160000  0.39420000  1
  C  C76  1  0.34100000  0.73560000  0.67450000  1
  C  C77  1  0.36270000  0.40790000  0.24070000  1
  C  C78  1  0.37820000  0.30480000  0.82730000  1
  C  C79  1  0.37820000  0.42290000  0.18240000  1
  C  C80  1  0.39490000  0.62600000  0.80650000  1
  C  C81  1  0.41210000  0.64340000  0.74550000  1
  C  C82  1  0.41960000  0.36750000  0.89490000  1
  C  C83  1  0.42090000  0.30530000  0.61480000  1
  C  C84  1  0.43480000  0.19760000  0.74230000  1
  C  C85  1  0.43530000  0.99200000  0.34990000  1
  C  C86  1  0.45260000  0.78370000  0.43710000  1
  C  C87  1  0.45750000  0.64810000  0.33980000  1
  C  C88  1  0.46770000  0.37590000  0.27700000  1
  C  C89  1  0.46860000  0.86040000  0.28290000  1
  C  C90  1  0.47560000  0.25640000  0.80250000  1
  C  C91  1  0.47630000  0.05990000  0.67130000  1
  C  C92  1  0.47790000  0.57440000  0.90670000  1
  C  C93  1  0.49630000  0.59210000  0.84080000  1
  C  C94  1  0.50370000  0.40790000  0.15920000  1
  C  C95  1  0.52210000  0.42560000  0.09330000  1
  C  C96  1  0.52370000  0.94010000  0.32870000  1
  C  C97  1  0.52440000  0.74360000  0.19750000  1
  C  C98  1  0.53140000  0.13960000  0.71710000  1
  C  C99  1  0.53230000  0.62410000  0.72300000  1
  C  C100  1  0.54250000  0.35190000  0.66020000  1
  C  C101  1  0.54740000  0.21630000  0.56290000  1
  C  C102  1  0.56470000  0.00800000  0.65010000  1
  C  C103  1  0.56520000  0.80240000  0.25770000  1
  C  C104  1  0.57910000  0.69470000  0.38520000  1
  C  C105  1  0.58040000  0.63250000  0.10510000  1
  C  C106  1  0.58790000  0.35660000  0.25450000  1
  C  C107  1  0.60510000  0.37400000  0.19350000  1
  C  C108  1  0.62180000  0.57710000  0.81760000  1
  C  C109  1  0.62180000  0.69520000  0.17270000  1
  C  C110  1  0.63730000  0.59210000  0.75930000  1
  C  C111  1  0.65900000  0.26440000  0.32550000  1
  C  C112  1  0.67240000  0.25840000  0.60580000  1
  C  C113  1  0.67370000  0.32850000  0.65470000  1
  C  C114  1  0.68100000  0.15960000  0.73690000  1
  C  C115  1  0.69890000  0.31990000  0.28940000  1
  C  C116  1  0.70260000  0.80930000  0.29660000  1
  C  C117  1  0.75640000  0.70370000  0.21240000  1
  C  C118  1  0.76120000  0.22870000  0.35650000  1
  C  C119  1  0.76440000  0.10350000  0.71090000  1
  C  C120  1  0.79610000  0.75940000  0.27370000  1
  C  C121  1  0.80640000  0.37790000  0.70290000  1
  C  C122  1  0.81250000  0.40340000  0.77190000  1
  C  C123  1  0.84180000  0.33810000  0.29160000  1
  C  C124  1  0.92910000  0.39770000  0.68110000  1
  C  C125  1  0.93450000  0.29860000  0.32510000  1
  C  C126  1  0.93760000  0.44890000  0.81540000  1
  C  C127  1  0.94120000  0.53060000  0.20840000  1
  C  C128  1  0.94210000  0.47450000  0.88940000  1
  C  C129  1  0.94520000  0.55660000  0.27500000  1
  I  I130  1  0.01052000  0.22036000  0.52835000  1
  I  I131  1  0.08940000  0.97873000  0.67434000  1
  I  I132  1  0.23700000  0.00970000  0.49977000  1
  I  I133  1  0.30228000  0.20962000  0.38593000  1
  I  I134  1  0.69772000  0.79038000  0.61407000  1
  I  I135  1  0.76300000  0.99030000  0.50023000  1
  I  I136  1  0.91060000  0.02127000  0.32566000  1
  I  I137  1  0.98948000  0.77964000  0.47165000  1
  N  N138  1  0.09810000  0.75470000  0.64220000  1
  N  N139  1  0.29210000  0.97180000  0.33190000  1
  N  N140  1  0.42220000  0.23830000  0.56530000  1
  N  N141  1  0.57780000  0.76170000  0.43470000  1
  N  N142  1  0.70790000  0.02820000  0.66810000  1
  N  N143  1  0.90190000  0.24530000  0.35780000  1
  O  O144  1  0.06000000  0.51470000  0.92800000  1
  O  O145  1  0.17040000  0.54440000  0.09180000  1
  O  O146  1  0.32640000  0.40800000  0.91280000  1
  O  O147  1  0.35920000  0.58300000  0.92170000  1
  O  O148  1  0.42330000  0.44990000  0.06120000  1
  O  O149  1  0.45480000  0.62460000  0.07170000  1
  O  O150  1  0.54520000  0.37540000  0.92830000  1
  O  O151  1  0.57670000  0.55010000  0.93880000  1
  O  O152  1  0.64080000  0.41700000  0.07830000  1
  O  O153  1  0.67360000  0.59200000  0.08720000  1
  O  O154  1  0.82960000  0.45560000  0.90820000  1
  O  O155  1  0.94000000  0.48530000  0.07200000  1
