# generated using pymatgen
data_KCdH8(C2O)8
_symmetry_space_group_name_H-M   'P 1'
_cell_length_a   20.59090000
_cell_length_b   20.59090000
_cell_length_c   28.30820000
_cell_angle_alpha   90.00000000
_cell_angle_beta   90.00000000
_cell_angle_gamma   120.00000000
_symmetry_Int_Tables_number   1
_chemical_formula_structural   KCdH8(C2O)8
_chemical_formula_sum   'K18 Cd18 H144 C288 O144'
_cell_volume   10394.25927930
_cell_formula_units_Z   18
loop_
 _symmetry_equiv_pos_site_id
 _symmetry_equiv_pos_as_xyz
  1  'x, y, z'
loop_
 _atom_site_type_symbol
 _atom_site_label
 _atom_site_symmetry_multiplicity
 _atom_site_fract_x
 _atom_site_fract_y
 _atom_site_fract_z
 _atom_site_occupancy
  K  K0  1  0.94251000  0.42519000  0.71939000  1
  K  K1  1  0.92559000  0.19756000  0.38964000  1
  K  K2  1  0.84955000  0.24554000  0.97185000  1
  K  K3  1  0.80244000  0.72803000  0.05631000  1
  K  K4  1  0.75446000  0.60401000  0.63852000  1
  K  K5  1  0.72803000  0.92559000  0.22297000  1
  K  K6  1  0.60401000  0.84955000  0.80518000  1
  K  K7  1  0.57481000  0.51732000  0.38606000  1
  K  K8  1  0.51732000  0.94251000  0.55273000  1
  K  K9  1  0.48268000  0.05749000  0.05273000  1
  K  K10  1  0.42519000  0.48268000  0.88606000  1
  K  K11  1  0.39599000  0.15045000  0.30518000  1
  K  K12  1  0.27197000  0.07441000  0.72297000  1
  K  K13  1  0.24554000  0.39599000  0.13852000  1
  K  K14  1  0.19756000  0.27197000  0.55631000  1
  K  K15  1  0.15045000  0.75446000  0.47185000  1
  K  K16  1  0.07441000  0.80244000  0.88964000  1
  K  K17  1  0.05749000  0.57481000  0.21939000  1
  Cd  Cd18  1  0.99699000  0.76750000  0.01801000  1
  Cd  Cd19  1  0.91263000  0.57646000  0.67687000  1
  Cd  Cd20  1  0.88800000  0.33125000  0.84440000  1
  Cd  Cd21  1  0.77051000  0.00301000  0.35134000  1
  Cd  Cd22  1  0.76750000  0.77051000  0.18468000  1
  Cd  Cd23  1  0.66875000  0.55675000  0.51107000  1
  Cd  Cd24  1  0.66383000  0.08736000  0.01021000  1
  Cd  Cd25  1  0.57646000  0.66383000  0.84354000  1
  Cd  Cd26  1  0.55675000  0.88800000  0.67774000  1
  Cd  Cd27  1  0.44325000  0.11200000  0.17774000  1
  Cd  Cd28  1  0.42354000  0.33617000  0.34354000  1
  Cd  Cd29  1  0.33617000  0.91263000  0.51021000  1
  Cd  Cd30  1  0.33125000  0.44325000  0.01107000  1
  Cd  Cd31  1  0.23250000  0.22949000  0.68468000  1
  Cd  Cd32  1  0.22949000  0.99699000  0.85134000  1
  Cd  Cd33  1  0.11200000  0.66875000  0.34440000  1
  Cd  Cd34  1  0.08736000  0.42354000  0.17687000  1
  Cd  Cd35  1  0.00301000  0.23250000  0.51801000  1
  H  H36  1  0.99970000  0.95490000  0.65443000  1
  H  H37  1  0.99350000  0.88780000  0.16543000  1
  H  H38  1  0.99000000  0.06730000  0.38560000  1
  H  H39  1  0.97740000  0.18800000  0.26743000  1
  H  H40  1  0.96670000  0.76610000  0.27930000  1
  H  H41  1  0.96390000  0.13710000  0.90630000  1
  H  H42  1  0.96360000  0.91830000  0.39830000  1
  H  H43  1  0.95520000  0.00030000  0.98777000  1
  H  H44  1  0.95490000  0.95520000  0.82110000  1
  H  H45  1  0.95470000  0.03640000  0.73163000  1
  H  H46  1  0.93610000  0.82610000  0.64553000  1
  H  H47  1  0.93270000  0.92270000  0.05227000  1
  H  H48  1  0.92270000  0.99000000  0.21893000  1
  H  H49  1  0.91830000  0.95470000  0.56497000  1
  H  H50  1  0.90170000  0.37510000  0.58843000  1
  H  H51  1  0.89430000  0.00650000  0.49877000  1
  H  H52  1  0.89000000  0.06390000  0.97887000  1
  H  H53  1  0.88780000  0.89430000  0.33210000  1
  H  H54  1  0.88030000  0.53580000  0.93430000  1
  H  H55  1  0.87450000  0.56040000  0.41647000  1
  H  H56  1  0.86290000  0.82680000  0.57297000  1
  H  H57  1  0.84770000  0.29210000  0.09527000  1
  H  H58  1  0.84380000  0.46930000  0.28767000  1
  H  H59  1  0.83340000  0.38800000  0.21417000  1
  H  H60  1  0.82680000  0.96390000  0.73963000  1
  H  H61  1  0.82610000  0.89000000  0.81220000  1
  H  H62  1  0.81440000  0.30270000  0.45973000  1
  H  H63  1  0.81200000  0.78940000  0.93410000  1
  H  H64  1  0.79940000  0.03330000  0.61263000  1
  H  H65  1  0.78940000  0.97740000  0.10077000  1
  H  H66  1  0.76860000  0.50330000  0.05570000  1
  H  H67  1  0.76810000  0.44300000  0.53113000  1
  H  H68  1  0.76610000  0.79940000  0.44597000  1
  H  H69  1  0.76600000  0.41140000  0.81533000  1
  H  H70  1  0.76110000  0.33410000  0.69990000  1
  H  H71  1  0.74840000  0.36610000  0.46673000  1
  H  H72  1  0.74130000  0.32640000  0.97960000  1
  H  H73  1  0.73470000  0.23140000  0.38903000  1
  H  H74  1  0.71590000  0.40790000  0.29847000  1
  H  H75  1  0.71440000  0.37440000  0.04580000  1
  H  H76  1  0.70790000  0.55560000  0.76193000  1
  H  H77  1  0.70400000  0.32150000  0.20887000  1
  H  H78  1  0.69730000  0.51170000  0.12640000  1
  H  H79  1  0.69200000  0.28410000  0.63180000  1
  H  H80  1  0.68590000  0.12550000  0.74980000  1
  H  H81  1  0.67850000  0.38250000  0.87553000  1
  H  H82  1  0.67490000  0.23190000  0.86447000  1
  H  H83  1  0.67360000  0.41490000  0.64627000  1
  H  H84  1  0.66590000  0.42700000  0.36657000  1
  H  H85  1  0.66000000  0.28560000  0.37913000  1
  H  H86  1  0.65550000  0.11970000  0.26763000  1
  H  H87  1  0.64540000  0.23400000  0.14867000  1
  H  H88  1  0.63390000  0.38230000  0.13340000  1
  H  H89  1  0.62560000  0.34000000  0.71247000  1
  H  H90  1  0.62550000  0.15620000  0.62100000  1
  H  H91  1  0.62490000  0.52660000  0.25510000  1
  H  H92  1  0.61770000  0.25160000  0.80007000  1
  H  H93  1  0.61750000  0.29600000  0.54220000  1
  H  H94  1  0.61200000  0.44540000  0.88083000  1
  H  H95  1  0.59210000  0.30800000  0.96513000  1
  H  H96  1  0.58860000  0.35460000  0.48200000  1
  H  H97  1  0.58510000  0.25870000  0.31293000  1
  H  H98  1  0.57300000  0.23890000  0.03323000  1
  H  H99  1  0.56040000  0.68590000  0.58313000  1
  H  H100  1  0.55700000  0.32510000  0.19780000  1
  H  H101  1  0.55560000  0.84770000  0.92860000  1
  H  H102  1  0.55460000  0.16660000  0.54750000  1
  H  H103  1  0.53580000  0.65550000  0.10097000  1
  H  H104  1  0.53070000  0.37450000  0.95433000  1
  H  H105  1  0.52660000  0.90170000  0.42177000  1
  H  H106  1  0.51170000  0.81440000  0.29307000  1
  H  H107  1  0.50330000  0.73470000  0.22237000  1
  H  H108  1  0.49670000  0.26530000  0.72237000  1
  H  H109  1  0.48830000  0.18560000  0.79307000  1
  H  H110  1  0.47340000  0.09830000  0.92177000  1
  H  H111  1  0.46930000  0.62550000  0.45433000  1
  H  H112  1  0.46420000  0.34450000  0.60097000  1
  H  H113  1  0.44540000  0.83340000  0.04750000  1
  H  H114  1  0.44440000  0.15230000  0.42860000  1
  H  H115  1  0.44300000  0.67490000  0.69780000  1
  H  H116  1  0.43960000  0.31410000  0.08313000  1
  H  H117  1  0.42700000  0.76110000  0.53323000  1
  H  H118  1  0.41490000  0.74130000  0.81293000  1
  H  H119  1  0.41140000  0.64540000  0.98200000  1
  H  H120  1  0.40790000  0.69200000  0.46513000  1
  H  H121  1  0.38800000  0.55460000  0.38083000  1
  H  H122  1  0.38250000  0.70400000  0.04220000  1
  H  H123  1  0.38230000  0.74840000  0.30007000  1
  H  H124  1  0.37510000  0.47340000  0.75510000  1
  H  H125  1  0.37450000  0.84380000  0.12100000  1
  H  H126  1  0.37440000  0.66000000  0.21247000  1
  H  H127  1  0.36610000  0.61770000  0.63340000  1
  H  H128  1  0.35460000  0.76600000  0.64867000  1
  H  H129  1  0.34450000  0.88030000  0.76763000  1
  H  H130  1  0.34000000  0.71440000  0.87913000  1
  H  H131  1  0.33410000  0.57300000  0.86657000  1
  H  H132  1  0.32640000  0.58510000  0.14627000  1
  H  H133  1  0.32510000  0.76810000  0.36447000  1
  H  H134  1  0.32150000  0.61750000  0.37553000  1
  H  H135  1  0.31410000  0.87450000  0.24980000  1
  H  H136  1  0.30800000  0.71590000  0.13180000  1
  H  H137  1  0.30270000  0.48830000  0.62640000  1
  H  H138  1  0.29600000  0.67850000  0.70887000  1
  H  H139  1  0.29210000  0.44440000  0.26193000  1
  H  H140  1  0.28560000  0.62560000  0.54580000  1
  H  H141  1  0.28410000  0.59210000  0.79847000  1
  H  H142  1  0.26530000  0.76860000  0.88903000  1
  H  H143  1  0.25870000  0.67360000  0.47960000  1
  H  H144  1  0.25160000  0.63390000  0.96673000  1
  H  H145  1  0.23890000  0.66590000  0.19990000  1
  H  H146  1  0.23400000  0.58860000  0.31533000  1
  H  H147  1  0.23390000  0.20060000  0.94597000  1
  H  H148  1  0.23190000  0.55700000  0.03113000  1
  H  H149  1  0.23140000  0.49670000  0.55570000  1
  H  H150  1  0.21060000  0.02260000  0.60077000  1
  H  H151  1  0.20060000  0.96670000  0.11263000  1
  H  H152  1  0.18800000  0.21060000  0.43410000  1
  H  H153  1  0.18560000  0.69730000  0.95973000  1
  H  H154  1  0.17390000  0.11000000  0.31220000  1
  H  H155  1  0.17320000  0.03610000  0.23963000  1
  H  H156  1  0.16660000  0.61200000  0.71417000  1
  H  H157  1  0.15620000  0.53070000  0.78767000  1
  H  H158  1  0.15230000  0.70790000  0.59527000  1
  H  H159  1  0.13710000  0.17320000  0.07297000  1
  H  H160  1  0.12550000  0.43960000  0.91647000  1
  H  H161  1  0.11970000  0.46420000  0.43430000  1
  H  H162  1  0.11220000  0.10570000  0.83210000  1
  H  H163  1  0.11000000  0.93610000  0.47887000  1
  H  H164  1  0.10570000  0.99350000  0.99877000  1
  H  H165  1  0.09830000  0.62490000  0.08843000  1
  H  H166  1  0.08170000  0.04530000  0.06497000  1
  H  H167  1  0.07730000  0.01000000  0.71893000  1
  H  H168  1  0.06730000  0.07730000  0.55227000  1
  H  H169  1  0.06390000  0.17390000  0.14553000  1
  H  H170  1  0.04530000  0.96360000  0.23163000  1
  H  H171  1  0.04510000  0.04480000  0.32110000  1
  H  H172  1  0.04480000  0.99970000  0.48777000  1
  H  H173  1  0.03640000  0.08170000  0.89830000  1
  H  H174  1  0.03610000  0.86290000  0.40630000  1
  H  H175  1  0.03330000  0.23390000  0.77930000  1
  H  H176  1  0.02260000  0.81200000  0.76743000  1
  H  H177  1  0.01000000  0.93270000  0.88560000  1
  H  H178  1  0.00650000  0.11220000  0.66543000  1
  H  H179  1  0.00030000  0.04510000  0.15443000  1
  C  C180  1  0.99520000  0.07500000  0.17710000  1
  C  C181  1  0.99310000  0.14630000  0.87937000  1
  C  C182  1  0.99228000  0.19333000  0.84413000  1
  C  C183  1  0.98320000  0.16390000  0.24523000  1
  C  C184  1  0.97291000  0.80240000  0.70538000  1
  C  C185  1  0.96640000  0.84770000  0.67182000  1
  C  C186  1  0.96487000  0.79534000  0.30373000  1
  C  C187  1  0.96310000  0.88670000  0.37466000  1
  C  C188  1  0.95810000  0.90740000  0.88267000  1
  C  C189  1  0.95646000  0.56374000  0.34355000  1
  C  C190  1  0.95480000  0.08180000  0.66822000  1
  C  C191  1  0.94930000  0.04190000  0.21600000  1
  C  C192  1  0.94673000  0.23162000  0.84993000  1
  C  C193  1  0.94530000  0.83399000  0.95735000  1
  C  C194  1  0.94323000  0.08655000  0.25049000  1
  C  C195  1  0.94220000  0.71990000  0.69736000  1
  C  C196  1  0.93954000  0.13206000  0.59039000  1
  C  C197  1  0.93785000  0.38105000  0.16184000  1
  C  C198  1  0.92500000  0.92020000  0.84377000  1
  C  C199  1  0.92360000  0.03690000  0.70799000  1
  C  C200  1  0.92020000  0.99520000  0.01044000  1
  C  C201  1  0.91952000  0.82687000  0.29938000  1
  C  C202  1  0.91820000  0.87300000  0.33489000  1
  C  C203  1  0.91345000  0.85668000  0.91716000  1
  C  C204  1  0.90970000  0.29270000  0.51974000  1
  C  C205  1  0.90740000  0.94930000  0.04934000  1
  C  C206  1  0.90735000  0.08048000  0.63271000  1
  C  C207  1  0.88869000  0.05470000  0.29068000  1
  C  C208  1  0.88670000  0.92360000  0.54133000  1
  C  C209  1  0.88130000  0.03360000  0.00516000  1
  C  C210  1  0.87530000  0.61670000  0.00641000  1
  C  C211  1  0.87300000  0.95480000  0.50156000  1
  C  C212  1  0.87280000  0.52245000  0.35016000  1
  C  C213  1  0.87278000  0.37500000  0.56315000  1
  C  C214  1  0.86794000  0.80748000  0.25706000  1
  C  C215  1  0.86564000  0.33228000  0.52341000  1
  C  C216  1  0.85668000  0.94323000  0.08383000  1
  C  C217  1  0.85597000  0.46977000  0.60711000  1
  C  C218  1  0.85399000  0.34429000  0.15636000  1
  C  C219  1  0.85370000  0.84680000  0.54604000  1
  C  C220  1  0.84788000  0.50350000  0.95723000  1
  C  C221  1  0.84770000  0.88130000  0.83849000  1
  C  C222  1  0.84680000  0.99310000  0.71270000  1
  C  C223  1  0.84249000  0.53122000  0.39230000  1
  C  C224  1  0.83862000  0.39650000  0.90984000  1
  C  C225  1  0.83754000  0.41769000  0.56607000  1
  C  C226  1  0.83610000  0.81930000  0.91190000  1
  C  C227  1  0.83399000  0.88869000  0.12402000  1
  C  C228  1  0.83270000  0.53270000  0.99693000  1
  C  C229  1  0.83047000  0.03513000  0.63706000  1
  C  C230  1  0.82949000  0.02709000  0.03872000  1
  C  C231  1  0.82687000  0.90735000  0.46605000  1
  C  C232  1  0.82440000  0.47620000  0.31563000  1
  C  C233  1  0.81960000  0.33050000  0.48684000  1
  C  C234  1  0.81930000  0.98320000  0.07857000  1
  C  C235  1  0.81879000  0.29637000  0.11900000  1
  C  C236  1  0.81528000  0.42620000  0.95110000  1
  C  C237  1  0.81040000  0.35410000  0.18960000  1
  C  C238  1  0.80748000  0.93954000  0.42373000  1
  C  C239  1  0.80667000  0.79895000  0.51080000  1
  C  C240  1  0.80240000  0.82949000  0.87205000  1
  C  C241  1  0.80236000  0.50938000  0.74380000  1
  C  C242  1  0.79895000  0.99228000  0.67746000  1
  C  C243  1  0.79534000  0.83047000  0.47040000  1
  C  C244  1  0.79180000  0.41470000  0.52956000  1
  C  C245  1  0.78130000  0.36990000  0.49051000  1
  C  C246  1  0.78110000  0.48430000  0.02964000  1
  C  C247  1  0.77969000  0.26520000  0.77514000  1
  C  C248  1  0.77770000  0.05780000  0.03070000  1
  C  C249  1  0.76838000  0.71511000  0.51660000  1
  C  C250  1  0.76566000  0.49727000  0.39869000  1
  C  C251  1  0.76430000  0.37800000  0.98393000  1
  C  C252  1  0.74790000  0.40680000  0.02334000  1
  C  C253  1  0.74750000  0.43970000  0.32190000  1
  C  C254  1  0.74589000  0.48680000  0.78258000  1
  C  C255  1  0.74140000  0.12470000  0.33974000  1
  C  C256  1  0.74091000  0.25411000  0.11592000  1
  C  C257  1  0.73760000  0.43500000  0.81673000  1
  C  C258  1  0.73480000  0.51449000  0.44181000  1
  C  C259  1  0.73290000  0.28240000  0.69607000  1
  C  C260  1  0.73270000  0.31400000  0.18656000  1
  C  C261  1  0.73161000  0.23434000  0.73202000  1
  C  C262  1  0.71990000  0.77770000  0.86403000  1
  C  C263  1  0.71760000  0.45050000  0.36274000  1
  C  C264  1  0.71511000  0.94673000  0.68326000  1
  C  C265  1  0.70730000  0.61700000  0.18641000  1
  C  C266  1  0.70702000  0.19764000  0.07714000  1
  C  C267  1  0.70363000  0.52242000  0.78566000  1
  C  C268  1  0.70320000  0.21890000  0.36297000  1
  C  C269  1  0.70000000  0.16730000  0.33026000  1
  C  C270  1  0.69740000  0.26240000  0.15007000  1
  C  C271  1  0.69220000  0.25250000  0.65523000  1
  C  C272  1  0.68873000  0.15751000  0.72563000  1
  C  C273  1  0.68600000  0.41870000  0.85322000  1
  C  C274  1  0.66950000  0.48910000  0.15351000  1
  C  C275  1  0.66772000  0.53336000  0.19008000  1
  C  C276  1  0.65890000  0.25210000  0.35667000  1
  C  C277  1  0.65571000  0.50970000  0.82302000  1
  C  C278  1  0.65562000  0.15212000  0.29056000  1
  C  C279  1  0.65180000  0.17560000  0.64896000  1
  C  C280  1  0.64965000  0.12720000  0.68349000  1
  C  C281  1  0.64590000  0.45630000  0.85626000  1
  C  C282  1  0.63010000  0.41140000  0.15718000  1
  C  C283  1  0.62500000  0.49778000  0.22982000  1
  C  C284  1  0.62290000  0.20820000  0.86290000  1
  C  C285  1  0.62200000  0.38630000  0.65060000  1
  C  C286  1  0.61895000  0.55680000  0.82850000  1
  C  C287  1  0.61700000  0.90970000  0.35308000  1
  C  C288  1  0.61670000  0.74140000  0.17308000  1
  C  C289  1  0.61380000  0.14403000  0.94045000  1
  C  C290  1  0.61370000  0.23570000  0.31726000  1
  C  C291  1  0.61092000  0.18472000  0.28443000  1
  C  C292  1  0.60728000  0.04354000  0.67688000  1
  C  C293  1  0.60350000  0.44212000  0.57651000  1
  C  C294  1  0.59320000  0.34110000  0.69001000  1
  C  C295  1  0.58860000  0.21870000  0.82385000  1
  C  C296  1  0.58530000  0.37710000  0.19623000  1
  C  C297  1  0.58231000  0.41985000  0.23274000  1
  C  C298  1  0.58130000  0.26730000  0.51989000  1
  C  C299  1  0.58015000  0.16246000  0.89941000  1
  C  C300  1  0.57380000  0.38908000  0.61777000  1
  C  C301  1  0.56500000  0.30260000  0.48340000  1
  C  C302  1  0.56374000  0.60728000  0.51021000  1
  C  C303  1  0.56030000  0.30780000  0.98856000  1
  C  C304  1  0.55788000  0.16138000  0.24317000  1
  C  C305  1  0.55680000  0.93785000  0.99517000  1
  C  C306  1  0.54950000  0.26710000  0.02940000  1
  C  C307  1  0.54370000  0.18960000  0.52293000  1
  C  C308  1  0.53336000  0.86564000  0.35675000  1
  C  C309  1  0.53270000  0.70000000  0.16360000  1
  C  C310  1  0.53122000  0.68873000  0.55896000  1
  C  C311  1  0.53023000  0.38620000  0.27378000  1
  C  C312  1  0.52380000  0.34820000  0.98229000  1
  C  C313  1  0.52245000  0.64965000  0.51682000  1
  C  C314  1  0.52242000  0.81879000  0.95233000  1
  C  C315  1  0.51570000  0.29680000  0.69631000  1
  C  C316  1  0.51449000  0.77969000  0.60847000  1
  C  C317  1  0.51320000  0.25909000  0.44925000  1
  C  C318  1  0.51090000  0.18040000  0.82018000  1
  C  C319  1  0.50970000  0.85399000  0.98969000  1
  C  C320  1  0.50938000  0.70702000  0.91047000  1
  C  C321  1  0.50350000  0.65562000  0.12390000  1
  C  C322  1  0.50273000  0.26839000  0.06535000  1
  C  C323  1  0.50222000  0.12722000  0.89649000  1
  C  C324  1  0.49778000  0.87278000  0.39649000  1
  C  C325  1  0.49727000  0.73161000  0.56535000  1
  C  C326  1  0.49650000  0.34438000  0.62390000  1
  C  C327  1  0.49062000  0.29298000  0.41047000  1
  C  C328  1  0.49030000  0.14601000  0.48969000  1
  C  C329  1  0.48910000  0.81960000  0.32018000  1
  C  C330  1  0.48680000  0.74091000  0.94925000  1
  C  C331  1  0.48551000  0.22031000  0.10847000  1
  C  C332  1  0.48430000  0.70320000  0.19631000  1
  C  C333  1  0.47758000  0.18121000  0.45233000  1
  C  C334  1  0.47755000  0.35035000  0.01682000  1
  C  C335  1  0.47620000  0.65180000  0.48229000  1
  C  C336  1  0.46977000  0.61380000  0.77378000  1
  C  C337  1  0.46878000  0.31127000  0.05896000  1
  C  C338  1  0.46730000  0.30000000  0.66360000  1
  C  C339  1  0.46664000  0.13436000  0.85675000  1
  C  C340  1  0.45630000  0.81040000  0.02293000  1
  C  C341  1  0.45050000  0.73290000  0.52940000  1
  C  C342  1  0.44320000  0.06215000  0.49517000  1
  C  C343  1  0.44212000  0.83862000  0.74317000  1
  C  C344  1  0.43970000  0.69220000  0.48856000  1
  C  C345  1  0.43626000  0.39272000  0.01021000  1
  C  C346  1  0.43500000  0.69740000  0.98340000  1
  C  C347  1  0.42620000  0.61092000  0.11777000  1
  C  C348  1  0.41985000  0.83754000  0.39941000  1
  C  C349  1  0.41870000  0.73270000  0.01989000  1
  C  C350  1  0.41769000  0.58015000  0.73274000  1
  C  C351  1  0.41470000  0.62290000  0.69623000  1
  C  C352  1  0.41140000  0.78130000  0.32385000  1
  C  C353  1  0.40680000  0.65890000  0.19001000  1
  C  C354  1  0.39650000  0.55788000  0.07651000  1
  C  C355  1  0.39272000  0.95646000  0.17688000  1
  C  C356  1  0.38908000  0.81528000  0.78443000  1
  C  C357  1  0.38630000  0.76430000  0.81726000  1
  C  C358  1  0.38620000  0.85597000  0.44045000  1
  C  C359  1  0.38330000  0.25860000  0.67308000  1
  C  C360  1  0.38300000  0.09030000  0.85308000  1
  C  C361  1  0.38105000  0.44320000  0.32850000  1
  C  C362  1  0.37800000  0.61370000  0.15060000  1
  C  C363  1  0.37710000  0.79180000  0.36290000  1
  C  C364  1  0.37500000  0.50222000  0.72982000  1
  C  C365  1  0.36990000  0.58860000  0.65718000  1
  C  C366  1  0.35410000  0.54370000  0.35626000  1
  C  C367  1  0.35035000  0.87280000  0.18349000  1
  C  C368  1  0.34820000  0.82440000  0.14896000  1
  C  C369  1  0.34438000  0.84788000  0.79056000  1
  C  C370  1  0.34429000  0.49030000  0.32302000  1
  C  C371  1  0.34110000  0.74790000  0.85667000  1
  C  C372  1  0.33228000  0.46664000  0.69008000  1
  C  C373  1  0.33050000  0.51090000  0.65351000  1
  C  C374  1  0.31400000  0.58130000  0.35322000  1
  C  C375  1  0.31127000  0.84249000  0.22563000  1
  C  C376  1  0.30780000  0.74750000  0.15523000  1
  C  C377  1  0.30260000  0.73760000  0.65007000  1
  C  C378  1  0.30000000  0.83270000  0.83026000  1
  C  C379  1  0.29680000  0.78110000  0.86297000  1
  C  C380  1  0.29637000  0.47758000  0.28566000  1
  C  C381  1  0.29298000  0.80236000  0.57714000  1
  C  C382  1  0.29270000  0.38300000  0.68641000  1
  C  C383  1  0.28489000  0.05327000  0.18326000  1
  C  C384  1  0.28240000  0.54950000  0.86274000  1
  C  C385  1  0.28010000  0.22230000  0.36403000  1
  C  C386  1  0.26839000  0.76566000  0.23202000  1
  C  C387  1  0.26730000  0.68600000  0.68656000  1
  C  C388  1  0.26710000  0.71760000  0.19607000  1
  C  C389  1  0.26520000  0.48551000  0.94181000  1
  C  C390  1  0.26240000  0.56500000  0.31673000  1
  C  C391  1  0.25909000  0.74589000  0.61592000  1
  C  C392  1  0.25860000  0.87530000  0.83974000  1
  C  C393  1  0.25411000  0.51320000  0.28258000  1
  C  C394  1  0.25250000  0.56030000  0.82190000  1
  C  C395  1  0.25210000  0.59320000  0.52334000  1
  C  C396  1  0.23570000  0.62200000  0.48393000  1
  C  C397  1  0.23434000  0.50273000  0.89869000  1
  C  C398  1  0.23162000  0.28489000  0.01660000  1
  C  C399  1  0.22230000  0.94220000  0.53070000  1
  C  C400  1  0.22031000  0.73480000  0.27514000  1
  C  C401  1  0.21890000  0.51570000  0.52964000  1
  C  C402  1  0.21870000  0.63010000  0.99051000  1
  C  C403  1  0.20820000  0.58530000  0.02956000  1
  C  C404  1  0.20466000  0.16953000  0.97040000  1
  C  C405  1  0.20105000  0.00772000  0.17746000  1
  C  C406  1  0.19764000  0.49062000  0.24380000  1
  C  C407  1  0.19760000  0.17051000  0.37205000  1
  C  C408  1  0.19333000  0.20105000  0.01080000  1
  C  C409  1  0.19252000  0.06046000  0.92373000  1
  C  C410  1  0.18960000  0.64590000  0.68960000  1
  C  C411  1  0.18472000  0.57380000  0.45110000  1
  C  C412  1  0.18121000  0.70363000  0.61900000  1
  C  C413  1  0.18070000  0.01680000  0.57857000  1
  C  C414  1  0.18040000  0.66950000  0.98684000  1
  C  C415  1  0.17560000  0.52380000  0.81563000  1
  C  C416  1  0.17313000  0.09265000  0.96605000  1
  C  C417  1  0.17051000  0.97291000  0.53872000  1
  C  C418  1  0.16953000  0.96487000  0.13706000  1
  C  C419  1  0.16730000  0.46730000  0.49693000  1
  C  C420  1  0.16601000  0.11131000  0.62402000  1
  C  C421  1  0.16390000  0.18070000  0.41190000  1
  C  C422  1  0.16246000  0.58231000  0.06607000  1
  C  C423  1  0.16138000  0.60350000  0.40984000  1
  C  C424  1  0.15751000  0.46878000  0.89230000  1
  C  C425  1  0.15320000  0.00690000  0.21270000  1
  C  C426  1  0.15230000  0.11870000  0.33849000  1
  C  C427  1  0.15212000  0.49650000  0.45723000  1
  C  C428  1  0.14630000  0.15320000  0.04604000  1
  C  C429  1  0.14601000  0.65571000  0.65636000  1
  C  C430  1  0.14403000  0.53023000  0.10711000  1
  C  C431  1  0.14332000  0.05677000  0.58383000  1
  C  C432  1  0.13436000  0.66772000  0.02341000  1
  C  C433  1  0.13206000  0.19252000  0.75706000  1
  C  C434  1  0.12722000  0.62500000  0.06315000  1
  C  C435  1  0.12720000  0.47755000  0.85016000  1
  C  C436  1  0.12700000  0.04520000  0.00156000  1
  C  C437  1  0.12470000  0.38330000  0.50641000  1
  C  C438  1  0.11870000  0.96640000  0.50516000  1
  C  C439  1  0.11330000  0.07640000  0.04133000  1
  C  C440  1  0.11131000  0.94530000  0.79068000  1
  C  C441  1  0.09265000  0.91952000  0.13271000  1
  C  C442  1  0.09260000  0.05070000  0.54934000  1
  C  C443  1  0.09030000  0.70730000  0.01974000  1
  C  C444  1  0.08655000  0.14332000  0.41716000  1
  C  C445  1  0.08180000  0.12700000  0.83489000  1
  C  C446  1  0.08048000  0.17313000  0.79938000  1
  C  C447  1  0.07980000  0.00480000  0.51044000  1
  C  C448  1  0.07640000  0.96310000  0.20799000  1
  C  C449  1  0.07500000  0.07980000  0.34377000  1
  C  C450  1  0.06215000  0.61895000  0.66184000  1
  C  C451  1  0.06046000  0.86794000  0.09039000  1
  C  C452  1  0.05780000  0.28010000  0.19736000  1
  C  C453  1  0.05677000  0.91345000  0.75049000  1
  C  C454  1  0.05470000  0.16601000  0.45735000  1
  C  C455  1  0.05327000  0.76838000  0.34993000  1
  C  C456  1  0.05070000  0.95810000  0.71600000  1
  C  C457  1  0.04520000  0.91820000  0.16822000  1
  C  C458  1  0.04354000  0.43626000  0.84355000  1
  C  C459  1  0.04190000  0.09260000  0.38267000  1
  C  C460  1  0.03690000  0.11330000  0.87466000  1
  C  C461  1  0.03513000  0.20466000  0.80373000  1
  C  C462  1  0.03360000  0.15230000  0.17182000  1
  C  C463  1  0.02709000  0.19760000  0.20538000  1
  C  C464  1  0.01680000  0.83610000  0.74523000  1
  C  C465  1  0.00772000  0.80667000  0.34413000  1
  C  C466  1  0.00690000  0.85370000  0.37937000  1
  C  C467  1  0.00480000  0.92500000  0.67710000  1
  O  O468  1  0.99667000  0.59988000  0.37844000  1
  O  O469  1  0.99389000  0.81296000  0.09313000  1
  O  O470  1  0.98950000  0.15566000  0.45287000  1
  O  O471  1  0.98343000  0.56283000  0.30412000  1
  O  O472  1  0.97349000  0.36263000  0.13425000  1
  O  O473  1  0.96964000  0.42658000  0.19515000  1
  O  O474  1  0.96043000  0.68420000  0.72497000  1
  O  O475  1  0.95330000  0.30079000  0.55328000  1
  O  O476  1  0.94196000  0.26641000  0.81438000  1
  O  O477  1  0.92353000  0.65796000  0.97670000  1
  O  O478  1  0.91573000  0.22853000  0.88851000  1
  O  O479  1  0.90630000  0.80296000  0.99229000  1
  O  O480  1  0.90304000  0.25431000  0.48377000  1
  O  O481  1  0.90181000  0.68991000  0.66139000  1
  O  O482  1  0.89969000  0.11979000  0.55457000  1
  O  O483  1  0.89666000  0.09370000  0.32562000  1
  O  O484  1  0.88021000  0.77990000  0.22124000  1
  O  O485  1  0.87752000  0.43965000  0.87735000  1
  O  O486  1  0.87714000  0.45538000  0.64514000  1
  O  O487  1  0.86470000  0.64142000  0.04376000  1
  O  O488  1  0.86234000  0.50792000  0.75038000  1
  O  O489  1  0.85228000  0.52921000  0.60207000  1
  O  O490  1  0.84434000  0.83384000  0.11954000  1
  O  O491  1  0.83384000  0.98950000  0.28620000  1
  O  O492  1  0.82951000  0.33428000  0.77552000  1
  O  O493  1  0.81978000  0.32777000  0.90986000  1
  O  O494  1  0.81907000  0.00611000  0.42647000  1
  O  O495  1  0.81296000  0.81907000  0.25980000  1
  O  O496  1  0.80296000  0.89666000  0.15896000  1
  O  O497  1  0.78926000  0.53246000  0.70560000  1
  O  O498  1  0.78810000  0.09819000  0.99473000  1
  O  O499  1  0.77990000  0.89969000  0.38791000  1
  O  O500  1  0.77733000  0.55012000  0.47553000  1
  O  O501  1  0.77672000  0.13530000  0.37709000  1
  O  O502  1  0.77279000  0.22267000  0.80886000  1
  O  O503  1  0.77147000  0.68720000  0.55518000  1
  O  O504  1  0.74569000  0.64873000  0.15044000  1
  O  O505  1  0.74320000  0.21074000  0.03894000  1
  O  O506  1  0.73443000  0.07647000  0.31003000  1
  O  O507  1  0.73359000  0.67555000  0.48105000  1
  O  O508  1  0.72377000  0.03957000  0.05831000  1
  O  O509  1  0.69921000  0.65251000  0.21995000  1
  O  O510  1  0.68991000  0.78810000  0.82806000  1
  O  O511  1  0.68720000  0.91573000  0.72184000  1
  O  O512  1  0.68420000  0.72377000  0.89164000  1
  O  O513  1  0.67693000  0.14772000  0.93541000  1
  O  O514  1  0.67555000  0.94196000  0.64771000  1
  O  O515  1  0.67223000  0.49201000  0.57653000  1
  O  O516  1  0.66572000  0.49523000  0.44219000  1
  O  O517  1  0.65796000  0.73443000  0.14337000  1
  O  O518  1  0.65251000  0.95330000  0.38662000  1
  O  O519  1  0.64873000  0.90304000  0.31711000  1
  O  O520  1  0.64558000  0.13766000  0.08372000  1
  O  O521  1  0.64142000  0.77672000  0.21043000  1
  O  O522  1  0.63737000  0.61086000  0.80091000  1
  O  O523  1  0.61086000  0.97349000  0.96758000  1
  O  O524  1  0.60321000  0.00333000  0.71177000  1
  O  O525  1  0.59988000  0.60321000  0.54510000  1
  O  O526  1  0.57940000  0.01657000  0.63745000  1
  O  O527  1  0.57824000  0.12286000  0.97848000  1
  O  O528  1  0.57342000  0.54306000  0.86181000  1
  O  O529  1  0.56283000  0.57940000  0.47078000  1
  O  O530  1  0.56213000  0.12248000  0.21068000  1
  O  O531  1  0.56035000  0.43787000  0.54402000  1
  O  O532  1  0.55012000  0.77279000  0.64219000  1
  O  O533  1  0.54462000  0.42176000  0.31181000  1
  O  O534  1  0.54306000  0.96964000  0.02848000  1
  O  O535  1  0.53246000  0.74320000  0.87227000  1
  O  O536  1  0.52921000  0.67693000  0.76874000  1
  O  O537  1  0.50799000  0.18022000  0.24319000  1
  O  O538  1  0.50792000  0.64558000  0.91705000  1
  O  O539  1  0.50477000  0.17049000  0.10885000  1
  O  O540  1  0.49523000  0.82951000  0.60885000  1
  O  O541  1  0.49208000  0.35442000  0.41705000  1
  O  O542  1  0.49201000  0.81978000  0.74319000  1
  O  O543  1  0.47079000  0.32307000  0.26874000  1
  O  O544  1  0.46754000  0.25680000  0.37227000  1
  O  O545  1  0.45694000  0.03036000  0.52848000  1
  O  O546  1  0.45538000  0.57824000  0.81181000  1
  O  O547  1  0.44988000  0.22721000  0.14219000  1
  O  O548  1  0.43965000  0.56213000  0.04402000  1
  O  O549  1  0.43787000  0.87752000  0.71068000  1
  O  O550  1  0.43717000  0.42060000  0.97078000  1
  O  O551  1  0.42658000  0.45694000  0.36181000  1
  O  O552  1  0.42176000  0.87714000  0.47848000  1
  O  O553  1  0.42060000  0.98343000  0.13745000  1
  O  O554  1  0.40012000  0.39679000  0.04510000  1
  O  O555  1  0.39679000  0.99667000  0.21177000  1
  O  O556  1  0.38914000  0.02651000  0.46758000  1
  O  O557  1  0.36263000  0.38914000  0.30091000  1
  O  O558  1  0.35858000  0.22328000  0.71043000  1
  O  O559  1  0.35442000  0.86234000  0.58372000  1
  O  O560  1  0.35127000  0.09696000  0.81711000  1
  O  O561  1  0.34749000  0.04670000  0.88662000  1
  O  O562  1  0.34204000  0.26557000  0.64337000  1
  O  O563  1  0.33428000  0.50477000  0.94219000  1
  O  O564  1  0.32777000  0.50799000  0.07653000  1
  O  O565  1  0.32445000  0.05804000  0.14771000  1
  O  O566  1  0.32307000  0.85228000  0.43541000  1
  O  O567  1  0.31580000  0.27623000  0.39164000  1
  O  O568  1  0.31280000  0.08427000  0.22184000  1
  O  O569  1  0.31009000  0.21190000  0.32806000  1
  O  O570  1  0.30079000  0.34749000  0.71995000  1
  O  O571  1  0.27623000  0.96043000  0.55831000  1
  O  O572  1  0.26641000  0.32445000  0.98105000  1
  O  O573  1  0.26557000  0.92353000  0.81003000  1
  O  O574  1  0.25680000  0.78926000  0.53894000  1
  O  O575  1  0.25431000  0.35127000  0.65044000  1
  O  O576  1  0.22853000  0.31280000  0.05518000  1
  O  O577  1  0.22721000  0.77733000  0.30886000  1
  O  O578  1  0.22328000  0.86470000  0.87709000  1
  O  O579  1  0.22267000  0.44988000  0.97553000  1
  O  O580  1  0.22010000  0.10031000  0.88791000  1
  O  O581  1  0.21190000  0.90181000  0.49473000  1
  O  O582  1  0.21074000  0.46754000  0.20560000  1
  O  O583  1  0.19704000  0.10334000  0.65896000  1
  O  O584  1  0.18704000  0.18093000  0.75980000  1
  O  O585  1  0.18093000  0.99389000  0.92647000  1
  O  O586  1  0.18022000  0.67223000  0.40986000  1
  O  O587  1  0.17049000  0.66572000  0.27552000  1
  O  O588  1  0.16616000  0.01050000  0.78620000  1
  O  O589  1  0.15566000  0.16616000  0.61954000  1
  O  O590  1  0.14772000  0.47079000  0.10207000  1
  O  O591  1  0.13766000  0.49208000  0.25038000  1
  O  O592  1  0.13530000  0.35858000  0.54376000  1
  O  O593  1  0.12286000  0.54462000  0.14514000  1
  O  O594  1  0.12248000  0.56035000  0.37735000  1
  O  O595  1  0.11979000  0.22010000  0.72124000  1
  O  O596  1  0.10334000  0.90630000  0.82562000  1
  O  O597  1  0.10031000  0.88021000  0.05457000  1
  O  O598  1  0.09819000  0.31009000  0.16139000  1
  O  O599  1  0.09696000  0.74569000  0.98377000  1
  O  O600  1  0.09370000  0.19704000  0.49229000  1
  O  O601  1  0.08427000  0.77147000  0.38851000  1
  O  O602  1  0.07647000  0.34204000  0.47670000  1
  O  O603  1  0.05804000  0.73359000  0.31438000  1
  O  O604  1  0.04670000  0.69921000  0.05328000  1
  O  O605  1  0.03957000  0.31580000  0.22497000  1
  O  O606  1  0.03036000  0.57342000  0.69515000  1
  O  O607  1  0.02651000  0.63737000  0.63425000  1
  O  O608  1  0.01657000  0.43717000  0.80412000  1
  O  O609  1  0.01050000  0.84434000  0.95287000  1
  O  O610  1  0.00611000  0.18704000  0.59313000  1
  O  O611  1  0.00333000  0.40012000  0.87844000  1
