# generated using pymatgen
data_ErH3(C5O4)2
_symmetry_space_group_name_H-M   'P 1'
_cell_length_a   7.12430000
_cell_length_b   10.69330000
_cell_length_c   17.09200000
_cell_angle_alpha   97.10900000
_cell_angle_beta   90.00000000
_cell_angle_gamma   90.00000000
_symmetry_Int_Tables_number   1
_chemical_formula_structural   ErH3(C5O4)2
_chemical_formula_sum   'Er4 H12 C40 O32'
_cell_volume   1292.09754397
_cell_formula_units_Z   4
loop_
 _symmetry_equiv_pos_site_id
 _symmetry_equiv_pos_as_xyz
  1  'x, y, z'
loop_
 _atom_site_type_symbol
 _atom_site_label
 _atom_site_symmetry_multiplicity
 _atom_site_fract_x
 _atom_site_fract_y
 _atom_site_fract_z
 _atom_site_occupancy
  Er  Er0  1  0.02014000  0.67741000  0.74657000  1
  Er  Er1  1  0.47986000  0.17741000  0.24657000  1
  Er  Er2  1  0.52014000  0.82259000  0.75343000  1
  Er  Er3  1  0.97986000  0.32259000  0.25343000  1
  H  H4  1  0.04390000  0.68050000  0.05950000  1
  H  H5  1  0.15170000  0.83550000  0.54970000  1
  H  H6  1  0.18060000  0.48850000  0.52000000  1
  H  H7  1  0.31940000  0.98850000  0.02000000  1
  H  H8  1  0.34830000  0.33550000  0.04970000  1
  H  H9  1  0.45610000  0.18050000  0.55950000  1
  H  H10  1  0.54390000  0.81950000  0.44050000  1
  H  H11  1  0.65170000  0.66450000  0.95030000  1
  H  H12  1  0.68060000  0.01150000  0.98000000  1
  H  H13  1  0.81940000  0.51150000  0.48000000  1
  H  H14  1  0.84830000  0.16450000  0.45030000  1
  H  H15  1  0.95610000  0.31950000  0.94050000  1
  C  C16  1  0.07250000  0.04720000  0.43300000  1
  C  C17  1  0.07560000  0.04200000  0.07360000  1
  C  C18  1  0.09030000  0.90130000  0.52950000  1
  C  C19  1  0.11860000  0.95120000  0.93800000  1
  C  C20  1  0.14720000  0.10970000  0.36470000  1
  C  C21  1  0.16080000  0.94680000  0.46300000  1
  C  C22  1  0.17390000  0.08580000  0.15000000  1
  C  C23  1  0.17730000  0.37840000  0.92080000  1
  C  C24  1  0.19070000  0.99310000  0.01170000  1
  C  C25  1  0.24590000  0.40330000  0.37400000  1
  C  C26  1  0.25410000  0.90330000  0.87400000  1
  C  C27  1  0.30930000  0.49310000  0.51170000  1
  C  C28  1  0.32270000  0.87840000  0.42080000  1
  C  C29  1  0.32610000  0.58580000  0.65000000  1
  C  C30  1  0.33920000  0.44680000  0.96300000  1
  C  C31  1  0.35280000  0.60970000  0.86470000  1
  C  C32  1  0.38140000  0.45120000  0.43800000  1
  C  C33  1  0.40970000  0.40130000  0.02950000  1
  C  C34  1  0.42440000  0.54200000  0.57360000  1
  C  C35  1  0.42750000  0.54720000  0.93300000  1
  C  C36  1  0.57250000  0.45280000  0.06700000  1
  C  C37  1  0.57560000  0.45800000  0.42640000  1
  C  C38  1  0.59030000  0.59870000  0.97050000  1
  C  C39  1  0.61860000  0.54880000  0.56200000  1
  C  C40  1  0.64720000  0.39030000  0.13530000  1
  C  C41  1  0.66080000  0.55320000  0.03700000  1
  C  C42  1  0.67390000  0.41420000  0.35000000  1
  C  C43  1  0.67730000  0.12160000  0.57920000  1
  C  C44  1  0.69070000  0.50690000  0.48830000  1
  C  C45  1  0.74590000  0.09670000  0.12600000  1
  C  C46  1  0.75410000  0.59670000  0.62600000  1
  C  C47  1  0.80930000  0.00690000  0.98830000  1
  C  C48  1  0.82270000  0.62160000  0.07920000  1
  C  C49  1  0.82610000  0.91420000  0.85000000  1
  C  C50  1  0.83920000  0.05320000  0.53700000  1
  C  C51  1  0.85280000  0.89030000  0.63530000  1
  C  C52  1  0.88140000  0.04880000  0.06200000  1
  C  C53  1  0.90970000  0.09870000  0.47050000  1
  C  C54  1  0.92440000  0.95800000  0.92640000  1
  C  C55  1  0.92750000  0.95280000  0.56700000  1
  O  O56  1  0.02800000  0.15520000  0.32310000  1
  O  O57  1  0.04390000  0.35120000  0.96700000  1
  O  O58  1  0.07580000  0.41290000  0.38550000  1
  O  O59  1  0.17780000  0.61420000  0.85518000  1
  O  O60  1  0.17790000  0.34780000  0.84960000  1
  O  O61  1  0.19040000  0.85370000  0.80689000  1
  O  O62  1  0.19220000  0.20380000  0.17159000  1
  O  O63  1  0.24280000  0.50660000  0.68556000  1
  O  O64  1  0.25720000  0.00660000  0.18556000  1
  O  O65  1  0.30780000  0.70380000  0.67159000  1
  O  O66  1  0.30960000  0.35370000  0.30689000  1
  O  O67  1  0.32210000  0.84780000  0.34960000  1
  O  O68  1  0.32220000  0.11420000  0.35518000  1
  O  O69  1  0.42420000  0.91290000  0.88550000  1
  O  O70  1  0.45610000  0.85120000  0.46700000  1
  O  O71  1  0.47200000  0.65520000  0.82310000  1
  O  O72  1  0.52800000  0.34480000  0.17690000  1
  O  O73  1  0.54390000  0.14880000  0.53300000  1
  O  O74  1  0.57580000  0.08710000  0.11450000  1
  O  O75  1  0.67780000  0.88580000  0.64482000  1
  O  O76  1  0.67790000  0.15220000  0.65040000  1
  O  O77  1  0.69040000  0.64630000  0.69311000  1
  O  O78  1  0.69220000  0.29620000  0.32841000  1
  O  O79  1  0.74280000  0.99340000  0.81444000  1
  O  O80  1  0.75720000  0.49340000  0.31444000  1
  O  O81  1  0.80780000  0.79620000  0.82841000  1
  O  O82  1  0.80960000  0.14630000  0.19311000  1
  O  O83  1  0.82210000  0.65220000  0.15040000  1
  O  O84  1  0.82220000  0.38580000  0.14482000  1
  O  O85  1  0.92420000  0.58710000  0.61450000  1
  O  O86  1  0.95610000  0.64880000  0.03300000  1
  O  O87  1  0.97200000  0.84480000  0.67690000  1
