# generated using pymatgen
data_ZnH2(C3O2)2
_symmetry_space_group_name_H-M   'P 1'
_cell_length_a   13.69290000
_cell_length_b   13.69290000
_cell_length_c   50.66400000
_cell_angle_alpha   90.00000000
_cell_angle_beta   90.00000000
_cell_angle_gamma   90.00000000
_symmetry_Int_Tables_number   1
_chemical_formula_structural   ZnH2(C3O2)2
_chemical_formula_sum   'Zn24 H48 C144 O96'
_cell_volume   9499.27253941
_cell_formula_units_Z   24
loop_
 _symmetry_equiv_pos_site_id
 _symmetry_equiv_pos_as_xyz
  1  'x, y, z'
loop_
 _atom_site_type_symbol
 _atom_site_label
 _atom_site_symmetry_multiplicity
 _atom_site_fract_x
 _atom_site_fract_y
 _atom_site_fract_z
 _atom_site_occupancy
  Zn  Zn0  1  0.00475000  0.41549000  0.38233000  1
  Zn  Zn1  1  0.01201000  0.86198000  0.50532000  1
  Zn  Zn2  1  0.05397000  0.26897000  0.33189000  1
  Zn  Zn3  1  0.08451000  0.50475000  0.13233000  1
  Zn  Zn4  1  0.13802000  0.98799000  0.99468000  1
  Zn  Zn5  1  0.23103000  0.55397000  0.08189000  1
  Zn  Zn6  1  0.26897000  0.05397000  0.66811000  1
  Zn  Zn7  1  0.36198000  0.48799000  0.75532000  1
  Zn  Zn8  1  0.41549000  0.00475000  0.61767000  1
  Zn  Zn9  1  0.44603000  0.76897000  0.41811000  1
  Zn  Zn10  1  0.48799000  0.36198000  0.24468000  1
  Zn  Zn11  1  0.49525000  0.91549000  0.36767000  1
  Zn  Zn12  1  0.50475000  0.08451000  0.86767000  1
  Zn  Zn13  1  0.51201000  0.63802000  0.74468000  1
  Zn  Zn14  1  0.55397000  0.23103000  0.91811000  1
  Zn  Zn15  1  0.58451000  0.99525000  0.11767000  1
  Zn  Zn16  1  0.63802000  0.51201000  0.25532000  1
  Zn  Zn17  1  0.73103000  0.94603000  0.16811000  1
  Zn  Zn18  1  0.76897000  0.44603000  0.58189000  1
  Zn  Zn19  1  0.86198000  0.01201000  0.49468000  1
  Zn  Zn20  1  0.91549000  0.49525000  0.63233000  1
  Zn  Zn21  1  0.94603000  0.73103000  0.83189000  1
  Zn  Zn22  1  0.98799000  0.13802000  0.00532000  1
  Zn  Zn23  1  0.99525000  0.58451000  0.88233000  1
  H  H24  1  0.03790000  0.16040000  0.43470000  1
  H  H25  1  0.06140000  0.77930000  0.05370000  1
  H  H26  1  0.07290000  0.33690000  0.93990000  1
  H  H27  1  0.12550000  0.26650000  0.61370000  1
  H  H28  1  0.13920000  0.28730000  0.06670000  1
  H  H29  1  0.16040000  0.03790000  0.56530000  1
  H  H30  1  0.16310000  0.57290000  0.68990000  1
  H  H31  1  0.16380000  0.74320000  0.62560000  1
  H  H32  1  0.21270000  0.63920000  0.81670000  1
  H  H33  1  0.22070000  0.93860000  0.44630000  1
  H  H34  1  0.23350000  0.62550000  0.36370000  1
  H  H35  1  0.24320000  0.33620000  0.87560000  1
  H  H36  1  0.25680000  0.83620000  0.87440000  1
  H  H37  1  0.26650000  0.12550000  0.38630000  1
  H  H38  1  0.27930000  0.43860000  0.30370000  1
  H  H39  1  0.28730000  0.13920000  0.93330000  1
  H  H40  1  0.33620000  0.24320000  0.12440000  1
  H  H41  1  0.33690000  0.07290000  0.06010000  1
  H  H42  1  0.33960000  0.53790000  0.18470000  1
  H  H43  1  0.36080000  0.78730000  0.68330000  1
  H  H44  1  0.37450000  0.76650000  0.13630000  1
  H  H45  1  0.42710000  0.83690000  0.81010000  1
  H  H46  1  0.43860000  0.27930000  0.69630000  1
  H  H47  1  0.46210000  0.66040000  0.31530000  1
  H  H48  1  0.53790000  0.33960000  0.81530000  1
  H  H49  1  0.56140000  0.72070000  0.19630000  1
  H  H50  1  0.57290000  0.16310000  0.31010000  1
  H  H51  1  0.62550000  0.23350000  0.63630000  1
  H  H52  1  0.63920000  0.21270000  0.18330000  1
  H  H53  1  0.66040000  0.46210000  0.68470000  1
  H  H54  1  0.66310000  0.92710000  0.56010000  1
  H  H55  1  0.66380000  0.75680000  0.62440000  1
  H  H56  1  0.71270000  0.86080000  0.43330000  1
  H  H57  1  0.72070000  0.56140000  0.80370000  1
  H  H58  1  0.73350000  0.87450000  0.88630000  1
  H  H59  1  0.74320000  0.16380000  0.37440000  1
  H  H60  1  0.75680000  0.66380000  0.37560000  1
  H  H61  1  0.76650000  0.37450000  0.86370000  1
  H  H62  1  0.77930000  0.06140000  0.94630000  1
  H  H63  1  0.78730000  0.36080000  0.31670000  1
  H  H64  1  0.83620000  0.25680000  0.12560000  1
  H  H65  1  0.83690000  0.42710000  0.18990000  1
  H  H66  1  0.83960000  0.96210000  0.06530000  1
  H  H67  1  0.86080000  0.71270000  0.56670000  1
  H  H68  1  0.87450000  0.73350000  0.11370000  1
  H  H69  1  0.92710000  0.66310000  0.43990000  1
  H  H70  1  0.93860000  0.22070000  0.55370000  1
  H  H71  1  0.96210000  0.83960000  0.93470000  1
  C  C72  1  0.00430000  0.05400000  0.53460000  1
  C  C73  1  0.00680000  0.79770000  0.06348000  1
  C  C74  1  0.02490000  0.25980000  0.58486000  1
  C  C75  1  0.03570000  0.65140000  0.09239000  1
  C  C76  1  0.04390000  0.11830000  0.55710000  1
  C  C77  1  0.05400000  0.00430000  0.46540000  1
  C  C78  1  0.06280000  0.59630000  0.64526000  1
  C  C79  1  0.09290000  0.12550000  0.42955000  1
  C  C80  1  0.09630000  0.43720000  0.89526000  1
  C  C81  1  0.10590000  0.23040000  0.59911000  1
  C  C82  1  0.11360000  0.24430000  0.39189000  1
  C  C83  1  0.11830000  0.04390000  0.44290000  1
  C  C84  1  0.12370000  0.30990000  0.93017000  1
  C  C85  1  0.12550000  0.09290000  0.57045000  1
  C  C86  1  0.13460000  0.17530000  0.96356000  1
  C  C87  1  0.13870000  0.69200000  0.86433000  1
  C  C88  1  0.14760000  0.65030000  0.65630000  1
  C  C89  1  0.14800000  0.15830000  0.40806000  1
  C  C90  1  0.15030000  0.35240000  0.90630000  1
  C  C91  1  0.15140000  0.46430000  0.34239000  1
  C  C92  1  0.15830000  0.14800000  0.59194000  1
  C  C93  1  0.17140000  0.22820000  0.93966000  1
  C  C94  1  0.17530000  0.13460000  0.03644000  1
  C  C95  1  0.18860000  0.72710000  0.64209000  1
  C  C96  1  0.19010000  0.62370000  0.68017000  1
  C  C97  1  0.19130000  0.25210000  0.07365000  1
  C  C98  1  0.19200000  0.36130000  0.11433000  1
  C  C99  1  0.20230000  0.99320000  0.43652000  1
  C  C100  1  0.22030000  0.73390000  0.84762000  1
  C  C101  1  0.22710000  0.31140000  0.89209000  1
  C  C102  1  0.22820000  0.17140000  0.06034000  1
  C  C103  1  0.23040000  0.10590000  0.40089000  1
  C  C104  1  0.23390000  0.27970000  0.09762000  1
  C  C105  1  0.24020000  0.52490000  0.33486000  1
  C  C106  1  0.24430000  0.11360000  0.60811000  1
  C  C107  1  0.24790000  0.69130000  0.82365000  1
  C  C108  1  0.25210000  0.19130000  0.92635000  1
  C  C109  1  0.25570000  0.61360000  0.14189000  1
  C  C110  1  0.25980000  0.02490000  0.41514000  1
  C  C111  1  0.26610000  0.77970000  0.65238000  1
  C  C112  1  0.26960000  0.60590000  0.34911000  1
  C  C113  1  0.27180000  0.67140000  0.68966000  1
  C  C114  1  0.27290000  0.81140000  0.85791000  1
  C  C115  1  0.27970000  0.23390000  0.90238000  1
  C  C116  1  0.29770000  0.49320000  0.31348000  1
  C  C117  1  0.30800000  0.86130000  0.63567000  1
  C  C118  1  0.30870000  0.75210000  0.67635000  1
  C  C119  1  0.30990000  0.12370000  0.06983000  1
  C  C120  1  0.31140000  0.22710000  0.10791000  1
  C  C121  1  0.32470000  0.63460000  0.71356000  1
  C  C122  1  0.32860000  0.72820000  0.81034000  1
  C  C123  1  0.34170000  0.64800000  0.15806000  1
  C  C124  1  0.34860000  0.96430000  0.40761000  1
  C  C125  1  0.34970000  0.85240000  0.84370000  1
  C  C126  1  0.35200000  0.65830000  0.34194000  1
  C  C127  1  0.35240000  0.15030000  0.09370000  1
  C  C128  1  0.36130000  0.19200000  0.88567000  1
  C  C129  1  0.36540000  0.67530000  0.78644000  1
  C  C130  1  0.37450000  0.59290000  0.17955000  1
  C  C131  1  0.37630000  0.80990000  0.81983000  1
  C  C132  1  0.38170000  0.54390000  0.30710000  1
  C  C133  1  0.38640000  0.74430000  0.35811000  1
  C  C134  1  0.39410000  0.73040000  0.15089000  1
  C  C135  1  0.40370000  0.93720000  0.85474000  1
  C  C136  1  0.40710000  0.62550000  0.32045000  1
  C  C137  1  0.43720000  0.09630000  0.10474000  1
  C  C138  1  0.44600000  0.50430000  0.28460000  1
  C  C139  1  0.45610000  0.61830000  0.19290000  1
  C  C140  1  0.46430000  0.15140000  0.65761000  1
  C  C141  1  0.47510000  0.75980000  0.16514000  1
  C  C142  1  0.49320000  0.29770000  0.68652000  1
  C  C143  1  0.49570000  0.55400000  0.21540000  1
  C  C144  1  0.50430000  0.44600000  0.71540000  1
  C  C145  1  0.50680000  0.70230000  0.18652000  1
  C  C146  1  0.52490000  0.24020000  0.66514000  1
  C  C147  1  0.53570000  0.84860000  0.15761000  1
  C  C148  1  0.54390000  0.38170000  0.69290000  1
  C  C149  1  0.55400000  0.49570000  0.78460000  1
  C  C150  1  0.56280000  0.90370000  0.60474000  1
  C  C151  1  0.59290000  0.37450000  0.82045000  1
  C  C152  1  0.59630000  0.06280000  0.35474000  1
  C  C153  1  0.60590000  0.26960000  0.65089000  1
  C  C154  1  0.61360000  0.25570000  0.85811000  1
  C  C155  1  0.61830000  0.45610000  0.80710000  1
  C  C156  1  0.62370000  0.19010000  0.31983000  1
  C  C157  1  0.62550000  0.40710000  0.67955000  1
  C  C158  1  0.63460000  0.32470000  0.28644000  1
  C  C159  1  0.63870000  0.80800000  0.38567000  1
  C  C160  1  0.64760000  0.84970000  0.59370000  1
  C  C161  1  0.64800000  0.34170000  0.84194000  1
  C  C162  1  0.65030000  0.14760000  0.34370000  1
  C  C163  1  0.65140000  0.03570000  0.90761000  1
  C  C164  1  0.65830000  0.35200000  0.65806000  1
  C  C165  1  0.67140000  0.27180000  0.31034000  1
  C  C166  1  0.67530000  0.36540000  0.21356000  1
  C  C167  1  0.68860000  0.77290000  0.60791000  1
  C  C168  1  0.69010000  0.87630000  0.56983000  1
  C  C169  1  0.69130000  0.24790000  0.17635000  1
  C  C170  1  0.69200000  0.13870000  0.13567000  1
  C  C171  1  0.70230000  0.50680000  0.81348000  1
  C  C172  1  0.72030000  0.76610000  0.40238000  1
  C  C173  1  0.72710000  0.18860000  0.35791000  1
  C  C174  1  0.72820000  0.32860000  0.18966000  1
  C  C175  1  0.73040000  0.39410000  0.84911000  1
  C  C176  1  0.73390000  0.22030000  0.15238000  1
  C  C177  1  0.74020000  0.97510000  0.91514000  1
  C  C178  1  0.74430000  0.38640000  0.64189000  1
  C  C179  1  0.74790000  0.80870000  0.42635000  1
  C  C180  1  0.75210000  0.30870000  0.32365000  1
  C  C181  1  0.75570000  0.88640000  0.10811000  1
  C  C182  1  0.75980000  0.47510000  0.83486000  1
  C  C183  1  0.76610000  0.72030000  0.59762000  1
  C  C184  1  0.76960000  0.89410000  0.90089000  1
  C  C185  1  0.77180000  0.82860000  0.56034000  1
  C  C186  1  0.77290000  0.68860000  0.39209000  1
  C  C187  1  0.77970000  0.26610000  0.34762000  1
  C  C188  1  0.79770000  0.00680000  0.93652000  1
  C  C189  1  0.80800000  0.63870000  0.61433000  1
  C  C190  1  0.80870000  0.74790000  0.57365000  1
  C  C191  1  0.80990000  0.37630000  0.18017000  1
  C  C192  1  0.81140000  0.27290000  0.14209000  1
  C  C193  1  0.82470000  0.86540000  0.53644000  1
  C  C194  1  0.82860000  0.77180000  0.43966000  1
  C  C195  1  0.84170000  0.85200000  0.09194000  1
  C  C196  1  0.84860000  0.53570000  0.84239000  1
  C  C197  1  0.84970000  0.64760000  0.40630000  1
  C  C198  1  0.85200000  0.84170000  0.90806000  1
  C  C199  1  0.85240000  0.34970000  0.15630000  1
  C  C200  1  0.86130000  0.30800000  0.36433000  1
  C  C201  1  0.86540000  0.82470000  0.46356000  1
  C  C202  1  0.87450000  0.90710000  0.07045000  1
  C  C203  1  0.87630000  0.69010000  0.43017000  1
  C  C204  1  0.88170000  0.95610000  0.94290000  1
  C  C205  1  0.88640000  0.75570000  0.89189000  1
  C  C206  1  0.89410000  0.76960000  0.09911000  1
  C  C207  1  0.90370000  0.56280000  0.39526000  1
  C  C208  1  0.90710000  0.87450000  0.92955000  1
  C  C209  1  0.93720000  0.40370000  0.14526000  1
  C  C210  1  0.94600000  0.99570000  0.96540000  1
  C  C211  1  0.95610000  0.88170000  0.05710000  1
  C  C212  1  0.96430000  0.34860000  0.59239000  1
  C  C213  1  0.97510000  0.74020000  0.08486000  1
  C  C214  1  0.99320000  0.20230000  0.56348000  1
  C  C215  1  0.99570000  0.94600000  0.03460000  1
  O  O216  1  0.01480000  0.61480000  0.11498000  1
  O  O217  1  0.01770000  0.53680000  0.65941000  1
  O  O218  1  0.02720000  0.95720000  0.96825000  1
  O  O219  1  0.03680000  0.48230000  0.90941000  1
  O  O220  1  0.03840000  0.61470000  0.62197000  1
  O  O221  1  0.04280000  0.97280000  0.53175000  1
  O  O222  1  0.05840000  0.20820000  0.97468000  1
  O  O223  1  0.06140000  0.65900000  0.85249000  1
  O  O224  1  0.06580000  0.91310000  0.02201000  1
  O  O225  1  0.07060000  0.31090000  0.40347000  1
  O  O226  1  0.08690000  0.93420000  0.47799000  1
  O  O227  1  0.10010000  0.17890000  0.02976000  1
  O  O228  1  0.10030000  0.62470000  0.07741000  1
  O  O229  1  0.11470000  0.46160000  0.87197000  1
  O  O230  1  0.11480000  0.48520000  0.36498000  1
  O  O231  1  0.12470000  0.39970000  0.32741000  1
  O  O232  1  0.13150000  0.24020000  0.36750000  1
  O  O233  1  0.14710000  0.68660000  0.88826000  1
  O  O234  1  0.15900000  0.43860000  0.10249000  1
  O  O235  1  0.17890000  0.10010000  0.97024000  1
  O  O236  1  0.18660000  0.35290000  0.13826000  1
  O  O237  1  0.18910000  0.57060000  0.15347000  1
  O  O238  1  0.20820000  0.05840000  0.02532000  1
  O  O239  1  0.24020000  0.13150000  0.63250000  1
  O  O240  1  0.25980000  0.63150000  0.11750000  1
  O  O241  1  0.29180000  0.55840000  0.72468000  1
  O  O242  1  0.31090000  0.07060000  0.59653000  1
  O  O243  1  0.31340000  0.85290000  0.61174000  1
  O  O244  1  0.32110000  0.60010000  0.77976000  1
  O  O245  1  0.34100000  0.93860000  0.64751000  1
  O  O246  1  0.35290000  0.18660000  0.86174000  1
  O  O247  1  0.36850000  0.74020000  0.38250000  1
  O  O248  1  0.37530000  0.89970000  0.42259000  1
  O  O249  1  0.38520000  0.98520000  0.38502000  1
  O  O250  1  0.38530000  0.96160000  0.87803000  1
  O  O251  1  0.39970000  0.12470000  0.67259000  1
  O  O252  1  0.39990000  0.67890000  0.72024000  1
  O  O253  1  0.41310000  0.43420000  0.27201000  1
  O  O254  1  0.42940000  0.81090000  0.34653000  1
  O  O255  1  0.43420000  0.41310000  0.72799000  1
  O  O256  1  0.43860000  0.15900000  0.89751000  1
  O  O257  1  0.44160000  0.70820000  0.77532000  1
  O  O258  1  0.45720000  0.47280000  0.21825000  1
  O  O259  1  0.46160000  0.11470000  0.12803000  1
  O  O260  1  0.46320000  0.98230000  0.84059000  1
  O  O261  1  0.47280000  0.45720000  0.78175000  1
  O  O262  1  0.48230000  0.03680000  0.09059000  1
  O  O263  1  0.48520000  0.11480000  0.63502000  1
  O  O264  1  0.51480000  0.88520000  0.13502000  1
  O  O265  1  0.51770000  0.96320000  0.59059000  1
  O  O266  1  0.52720000  0.54280000  0.28175000  1
  O  O267  1  0.53680000  0.01770000  0.34059000  1
  O  O268  1  0.53840000  0.88530000  0.62803000  1
  O  O269  1  0.54280000  0.52720000  0.71825000  1
  O  O270  1  0.55840000  0.29180000  0.27532000  1
  O  O271  1  0.56140000  0.84100000  0.39751000  1
  O  O272  1  0.56580000  0.58690000  0.22799000  1
  O  O273  1  0.57060000  0.18910000  0.84653000  1
  O  O274  1  0.58690000  0.56580000  0.77201000  1
  O  O275  1  0.60010000  0.32110000  0.22024000  1
  O  O276  1  0.60030000  0.87530000  0.17259000  1
  O  O277  1  0.61470000  0.03840000  0.37803000  1
  O  O278  1  0.61480000  0.01480000  0.88502000  1
  O  O279  1  0.62470000  0.10030000  0.92259000  1
  O  O280  1  0.63150000  0.25980000  0.88250000  1
  O  O281  1  0.64710000  0.81340000  0.36174000  1
  O  O282  1  0.65900000  0.06140000  0.14751000  1
  O  O283  1  0.67890000  0.39990000  0.27976000  1
  O  O284  1  0.68660000  0.14710000  0.11174000  1
  O  O285  1  0.68910000  0.92940000  0.09653000  1
  O  O286  1  0.70820000  0.44160000  0.22468000  1
  O  O287  1  0.74020000  0.36850000  0.61750000  1
  O  O288  1  0.75980000  0.86850000  0.13250000  1
  O  O289  1  0.79180000  0.94160000  0.52532000  1
  O  O290  1  0.81090000  0.42940000  0.65347000  1
  O  O291  1  0.81340000  0.64710000  0.63826000  1
  O  O292  1  0.82110000  0.89990000  0.47024000  1
  O  O293  1  0.84100000  0.56140000  0.60249000  1
  O  O294  1  0.85290000  0.31340000  0.38826000  1
  O  O295  1  0.86850000  0.75980000  0.86750000  1
  O  O296  1  0.87530000  0.60030000  0.82741000  1
  O  O297  1  0.88520000  0.51480000  0.86498000  1
  O  O298  1  0.88530000  0.53840000  0.37197000  1
  O  O299  1  0.89970000  0.37530000  0.57741000  1
  O  O300  1  0.89990000  0.82110000  0.52976000  1
  O  O301  1  0.91310000  0.06580000  0.97799000  1
  O  O302  1  0.92940000  0.68910000  0.90347000  1
  O  O303  1  0.93420000  0.08690000  0.52201000  1
  O  O304  1  0.93860000  0.34100000  0.35249000  1
  O  O305  1  0.94160000  0.79180000  0.47468000  1
  O  O306  1  0.95720000  0.02720000  0.03175000  1
  O  O307  1  0.96160000  0.38530000  0.12197000  1
  O  O308  1  0.96320000  0.51770000  0.40941000  1
  O  O309  1  0.97280000  0.04280000  0.46825000  1
  O  O310  1  0.98230000  0.46320000  0.15941000  1
  O  O311  1  0.98520000  0.38520000  0.61498000  1
