# generated using pymatgen
data_Zn3Si2H32(C7O2)8
_symmetry_space_group_name_H-M   'P 1'
_cell_length_a   14.15290000
_cell_length_b   23.40600000
_cell_length_c   23.83250000
_cell_angle_alpha   90.00000000
_cell_angle_beta   90.00000000
_cell_angle_gamma   90.00000000
_symmetry_Int_Tables_number   1
_chemical_formula_structural   Zn3Si2H32(C7O2)8
_chemical_formula_sum   'Zn12 Si8 H128 C224 O64'
_cell_volume   7894.82014239
_cell_formula_units_Z   4
loop_
 _symmetry_equiv_pos_site_id
 _symmetry_equiv_pos_as_xyz
  1  'x, y, z'
loop_
 _atom_site_type_symbol
 _atom_site_label
 _atom_site_symmetry_multiplicity
 _atom_site_fract_x
 _atom_site_fract_y
 _atom_site_fract_z
 _atom_site_occupancy
  Zn  Zn0  1  0.00000000  0.00000000  0.50000000  1
  Zn  Zn1  1  0.00000000  0.50000000  0.00000000  1
  Zn  Zn2  1  0.06037000  0.13842000  0.51401000  1
  Zn  Zn3  1  0.06037000  0.36158000  0.98599000  1
  Zn  Zn4  1  0.43963000  0.13842000  0.98599000  1
  Zn  Zn5  1  0.43963000  0.36158000  0.51401000  1
  Zn  Zn6  1  0.50000000  0.00000000  0.00000000  1
  Zn  Zn7  1  0.50000000  0.50000000  0.50000000  1
  Zn  Zn8  1  0.56037000  0.63842000  0.48599000  1
  Zn  Zn9  1  0.56037000  0.86158000  0.01401000  1
  Zn  Zn10  1  0.93963000  0.63842000  0.01401000  1
  Zn  Zn11  1  0.93963000  0.86158000  0.48599000  1
  Si  Si12  1  0.06220000  0.01417000  0.86033000  1
  Si  Si13  1  0.06220000  0.48583000  0.63967000  1
  Si  Si14  1  0.43780000  0.01417000  0.63967000  1
  Si  Si15  1  0.43780000  0.48583000  0.86033000  1
  Si  Si16  1  0.56220000  0.51417000  0.13967000  1
  Si  Si17  1  0.56220000  0.98583000  0.36033000  1
  Si  Si18  1  0.93780000  0.51417000  0.36033000  1
  Si  Si19  1  0.93780000  0.98583000  0.13967000  1
  H  H20  1  0.00270000  0.54630000  0.74140000  1
  H  H21  1  0.00270000  0.95370000  0.75860000  1
  H  H22  1  0.00570000  0.52790000  0.83740000  1
  H  H23  1  0.00570000  0.97210000  0.66260000  1
  H  H24  1  0.00590000  0.07630000  0.06440000  1
  H  H25  1  0.00590000  0.42370000  0.43560000  1
  H  H26  1  0.06720000  0.69010000  0.43930000  1
  H  H27  1  0.06720000  0.80990000  0.06070000  1
  H  H28  1  0.07510000  0.59770000  0.40210000  1
  H  H29  1  0.07510000  0.90230000  0.09790000  1
  H  H30  1  0.13620000  0.52840000  0.32540000  1
  H  H31  1  0.13620000  0.97160000  0.17460000  1
  H  H32  1  0.13980000  0.10310000  0.78700000  1
  H  H33  1  0.13980000  0.39690000  0.71300000  1
  H  H34  1  0.14100000  0.12060000  0.69050000  1
  H  H35  1  0.14100000  0.37940000  0.80950000  1
  H  H36  1  0.14620000  0.51050000  0.53110000  1
  H  H37  1  0.14620000  0.98950000  0.96890000  1
  H  H38  1  0.15080000  0.10580000  0.03150000  1
  H  H39  1  0.15080000  0.39420000  0.46850000  1
  H  H40  1  0.16190000  0.61290000  0.84610000  1
  H  H41  1  0.16190000  0.88710000  0.65390000  1
  H  H42  1  0.20800000  0.56250000  0.68850000  1
  H  H43  1  0.20800000  0.93750000  0.81150000  1
  H  H44  1  0.21090000  0.09150000  0.89560000  1
  H  H45  1  0.21090000  0.40850000  0.60440000  1
  H  H46  1  0.21820000  0.50200000  0.13770000  1
  H  H47  1  0.21820000  0.99800000  0.36230000  1
  H  H48  1  0.21880000  0.18390000  0.93290000  1
  H  H49  1  0.21880000  0.31610000  0.56710000  1
  H  H50  1  0.22050000  0.55770000  0.00170000  1
  H  H51  1  0.22050000  0.94230000  0.49830000  1
  H  H52  1  0.27950000  0.55770000  0.49830000  1
  H  H53  1  0.27950000  0.94230000  0.00170000  1
  H  H54  1  0.28120000  0.18390000  0.56710000  1
  H  H55  1  0.28120000  0.31610000  0.93290000  1
  H  H56  1  0.28180000  0.50200000  0.36230000  1
  H  H57  1  0.28180000  0.99800000  0.13770000  1
  H  H58  1  0.28910000  0.09150000  0.60440000  1
  H  H59  1  0.28910000  0.40850000  0.89560000  1
  H  H60  1  0.29200000  0.56250000  0.81150000  1
  H  H61  1  0.29200000  0.93750000  0.68850000  1
  H  H62  1  0.33810000  0.61290000  0.65390000  1
  H  H63  1  0.33810000  0.88710000  0.84610000  1
  H  H64  1  0.34920000  0.10580000  0.46850000  1
  H  H65  1  0.34920000  0.39420000  0.03150000  1
  H  H66  1  0.35380000  0.51050000  0.96890000  1
  H  H67  1  0.35380000  0.98950000  0.53110000  1
  H  H68  1  0.35900000  0.12060000  0.80950000  1
  H  H69  1  0.35900000  0.37940000  0.69050000  1
  H  H70  1  0.36020000  0.10310000  0.71300000  1
  H  H71  1  0.36020000  0.39690000  0.78700000  1
  H  H72  1  0.36380000  0.52840000  0.17460000  1
  H  H73  1  0.36380000  0.97160000  0.32540000  1
  H  H74  1  0.42490000  0.59770000  0.09790000  1
  H  H75  1  0.42490000  0.90230000  0.40210000  1
  H  H76  1  0.43280000  0.69010000  0.06070000  1
  H  H77  1  0.43280000  0.80990000  0.43930000  1
  H  H78  1  0.49410000  0.07630000  0.43560000  1
  H  H79  1  0.49410000  0.42370000  0.06440000  1
  H  H80  1  0.49430000  0.52790000  0.66260000  1
  H  H81  1  0.49430000  0.97210000  0.83740000  1
  H  H82  1  0.49730000  0.54630000  0.75860000  1
  H  H83  1  0.49730000  0.95370000  0.74140000  1
  H  H84  1  0.50270000  0.04630000  0.25860000  1
  H  H85  1  0.50270000  0.45370000  0.24140000  1
  H  H86  1  0.50570000  0.02790000  0.16260000  1
  H  H87  1  0.50570000  0.47210000  0.33740000  1
  H  H88  1  0.50590000  0.57630000  0.93560000  1
  H  H89  1  0.50590000  0.92370000  0.56440000  1
  H  H90  1  0.56720000  0.19010000  0.56070000  1
  H  H91  1  0.56720000  0.30990000  0.93930000  1
  H  H92  1  0.57510000  0.09770000  0.59790000  1
  H  H93  1  0.57510000  0.40230000  0.90210000  1
  H  H94  1  0.63620000  0.02840000  0.67460000  1
  H  H95  1  0.63620000  0.47160000  0.82540000  1
  H  H96  1  0.63980000  0.60310000  0.21300000  1
  H  H97  1  0.63980000  0.89690000  0.28700000  1
  H  H98  1  0.64100000  0.62060000  0.30950000  1
  H  H99  1  0.64100000  0.87940000  0.19050000  1
  H  H100  1  0.64620000  0.01050000  0.46890000  1
  H  H101  1  0.64620000  0.48950000  0.03110000  1
  H  H102  1  0.65080000  0.60580000  0.96850000  1
  H  H103  1  0.65080000  0.89420000  0.53150000  1
  H  H104  1  0.66190000  0.11290000  0.15390000  1
  H  H105  1  0.66190000  0.38710000  0.34610000  1
  H  H106  1  0.70800000  0.06250000  0.31150000  1
  H  H107  1  0.70800000  0.43750000  0.18850000  1
  H  H108  1  0.71090000  0.59150000  0.10440000  1
  H  H109  1  0.71090000  0.90850000  0.39560000  1
  H  H110  1  0.71820000  0.00200000  0.86230000  1
  H  H111  1  0.71820000  0.49800000  0.63770000  1
  H  H112  1  0.71880000  0.68390000  0.06710000  1
  H  H113  1  0.71880000  0.81610000  0.43290000  1
  H  H114  1  0.72050000  0.05770000  0.99830000  1
  H  H115  1  0.72050000  0.44230000  0.50170000  1
  H  H116  1  0.77950000  0.05770000  0.50170000  1
  H  H117  1  0.77950000  0.44230000  0.99830000  1
  H  H118  1  0.78120000  0.68390000  0.43290000  1
  H  H119  1  0.78120000  0.81610000  0.06710000  1
  H  H120  1  0.78180000  0.00200000  0.63770000  1
  H  H121  1  0.78180000  0.49800000  0.86230000  1
  H  H122  1  0.78910000  0.59150000  0.39560000  1
  H  H123  1  0.78910000  0.90850000  0.10440000  1
  H  H124  1  0.79200000  0.06250000  0.18850000  1
  H  H125  1  0.79200000  0.43750000  0.31150000  1
  H  H126  1  0.83810000  0.11290000  0.34610000  1
  H  H127  1  0.83810000  0.38710000  0.15390000  1
  H  H128  1  0.84920000  0.60580000  0.53150000  1
  H  H129  1  0.84920000  0.89420000  0.96850000  1
  H  H130  1  0.85380000  0.01050000  0.03110000  1
  H  H131  1  0.85380000  0.48950000  0.46890000  1
  H  H132  1  0.85900000  0.62060000  0.19050000  1
  H  H133  1  0.85900000  0.87940000  0.30950000  1
  H  H134  1  0.86020000  0.60310000  0.28700000  1
  H  H135  1  0.86020000  0.89690000  0.21300000  1
  H  H136  1  0.86380000  0.02840000  0.82540000  1
  H  H137  1  0.86380000  0.47160000  0.67460000  1
  H  H138  1  0.92490000  0.09770000  0.90210000  1
  H  H139  1  0.92490000  0.40230000  0.59790000  1
  H  H140  1  0.93280000  0.19010000  0.93930000  1
  H  H141  1  0.93280000  0.30990000  0.56070000  1
  H  H142  1  0.99410000  0.57630000  0.56440000  1
  H  H143  1  0.99410000  0.92370000  0.93560000  1
  H  H144  1  0.99430000  0.02790000  0.33740000  1
  H  H145  1  0.99430000  0.47210000  0.16260000  1
  H  H146  1  0.99730000  0.04630000  0.24140000  1
  H  H147  1  0.99730000  0.45370000  0.25860000  1
  C  C148  1  0.01070000  0.67010000  0.43050000  1
  C  C149  1  0.01070000  0.82990000  0.06950000  1
  C  C150  1  0.01540000  0.61520000  0.40830000  1
  C  C151  1  0.01540000  0.88480000  0.09170000  1
  C  C152  1  0.03060000  0.51200000  0.75484000  1
  C  C153  1  0.03060000  0.98800000  0.74516000  1
  C  C154  1  0.03280000  0.50115000  0.81217000  1
  C  C155  1  0.03280000  0.99885000  0.68783000  1
  C  C156  1  0.05390000  0.01994000  0.12195000  1
  C  C157  1  0.05390000  0.48006000  0.37805000  1
  C  C158  1  0.06170000  0.06000000  0.07972000  1
  C  C159  1  0.06170000  0.44000000  0.42028000  1
  C  C160  1  0.06720000  0.08590000  0.89540000  1
  C  C161  1  0.06720000  0.41410000  0.60460000  1
  C  C162  1  0.06930000  0.02715000  0.78343000  1
  C  C163  1  0.06930000  0.47285000  0.71657000  1
  C  C164  1  0.07250000  0.06090000  0.60540000  1
  C  C165  1  0.07250000  0.43910000  0.89460000  1
  C  C166  1  0.07360000  0.04796000  0.66717000  1
  C  C167  1  0.07360000  0.45204000  0.83283000  1
  C  C168  1  0.07660000  0.19570000  0.93960000  1
  C  C169  1  0.07660000  0.30430000  0.56040000  1
  C  C170  1  0.08100000  0.24350000  0.53810000  1
  C  C171  1  0.08100000  0.25650000  0.96190000  1
  C  C172  1  0.08650000  0.61164000  0.94726000  1
  C  C173  1  0.08650000  0.88836000  0.55274000  1
  C  C174  1  0.11160000  0.07640000  0.76207000  1
  C  C175  1  0.11160000  0.42360000  0.73793000  1
  C  C176  1  0.11280000  0.08660000  0.70443000  1
  C  C177  1  0.11280000  0.41340000  0.79557000  1
  C  C178  1  0.13870000  0.50220000  0.35583000  1
  C  C179  1  0.13870000  0.99780000  0.14417000  1
  C  C180  1  0.14760000  0.07684000  0.05936000  1
  C  C181  1  0.14760000  0.42316000  0.44064000  1
  C  C182  1  0.15450000  0.11150000  0.90450000  1
  C  C183  1  0.15450000  0.38850000  0.59550000  1
  C  C184  1  0.15920000  0.16640000  0.92660000  1
  C  C185  1  0.15920000  0.33360000  0.57340000  1
  C  C186  1  0.16340000  0.52975000  0.61388000  1
  C  C187  1  0.16340000  0.97025000  0.88612000  1
  C  C188  1  0.17700000  0.58628000  0.92661000  1
  C  C189  1  0.17700000  0.91372000  0.57339000  1
  C  C190  1  0.17750000  0.06490000  0.44911000  1
  C  C191  1  0.17750000  0.43510000  0.05089000  1
  C  C192  1  0.18600000  0.52998000  0.55689000  1
  C  C193  1  0.18600000  0.97002000  0.94311000  1
  C  C194  1  0.19950000  0.59038000  0.87066000  1
  C  C195  1  0.19950000  0.90962000  0.62934000  1
  C  C196  1  0.22210000  0.56110000  0.64952000  1
  C  C197  1  0.22210000  0.93890000  0.85048000  1
  C  C198  1  0.22560000  0.01370000  0.12241000  1
  C  C199  1  0.22560000  0.48630000  0.37759000  1
  C  C200  1  0.23110000  0.05166000  0.07932000  1
  C  C201  1  0.23110000  0.44834000  0.42068000  1
  C  C202  1  0.23470000  0.55809000  0.96270000  1
  C  C203  1  0.23470000  0.94191000  0.53730000  1
  C  C204  1  0.26530000  0.55809000  0.53730000  1
  C  C205  1  0.26530000  0.94191000  0.96270000  1
  C  C206  1  0.26890000  0.05166000  0.42068000  1
  C  C207  1  0.26890000  0.44834000  0.07932000  1
  C  C208  1  0.27440000  0.01370000  0.37759000  1
  C  C209  1  0.27440000  0.48630000  0.12241000  1
  C  C210  1  0.27790000  0.56110000  0.85048000  1
  C  C211  1  0.27790000  0.93890000  0.64952000  1
  C  C212  1  0.30050000  0.59038000  0.62934000  1
  C  C213  1  0.30050000  0.90962000  0.87066000  1
  C  C214  1  0.31400000  0.52998000  0.94311000  1
  C  C215  1  0.31400000  0.97002000  0.55689000  1
  C  C216  1  0.32250000  0.06490000  0.05089000  1
  C  C217  1  0.32250000  0.43510000  0.44911000  1
  C  C218  1  0.32300000  0.58628000  0.57339000  1
  C  C219  1  0.32300000  0.91372000  0.92661000  1
  C  C220  1  0.33660000  0.52975000  0.88612000  1
  C  C221  1  0.33660000  0.97025000  0.61388000  1
  C  C222  1  0.34080000  0.16640000  0.57340000  1
  C  C223  1  0.34080000  0.33360000  0.92660000  1
  C  C224  1  0.34550000  0.11150000  0.59550000  1
  C  C225  1  0.34550000  0.38850000  0.90450000  1
  C  C226  1  0.35240000  0.07684000  0.44064000  1
  C  C227  1  0.35240000  0.42316000  0.05936000  1
  C  C228  1  0.36130000  0.50220000  0.14417000  1
  C  C229  1  0.36130000  0.99780000  0.35583000  1
  C  C230  1  0.38720000  0.08660000  0.79557000  1
  C  C231  1  0.38720000  0.41340000  0.70443000  1
  C  C232  1  0.38840000  0.07640000  0.73793000  1
  C  C233  1  0.38840000  0.42360000  0.76207000  1
  C  C234  1  0.41350000  0.61164000  0.55274000  1
  C  C235  1  0.41350000  0.88836000  0.94726000  1
  C  C236  1  0.41900000  0.24350000  0.96190000  1
  C  C237  1  0.41900000  0.25650000  0.53810000  1
  C  C238  1  0.42340000  0.19570000  0.56040000  1
  C  C239  1  0.42340000  0.30430000  0.93960000  1
  C  C240  1  0.42640000  0.04796000  0.83283000  1
  C  C241  1  0.42640000  0.45204000  0.66717000  1
  C  C242  1  0.42750000  0.06090000  0.89460000  1
  C  C243  1  0.42750000  0.43910000  0.60540000  1
  C  C244  1  0.43070000  0.02715000  0.71657000  1
  C  C245  1  0.43070000  0.47285000  0.78343000  1
  C  C246  1  0.43280000  0.08590000  0.60460000  1
  C  C247  1  0.43280000  0.41410000  0.89540000  1
  C  C248  1  0.43830000  0.06000000  0.42028000  1
  C  C249  1  0.43830000  0.44000000  0.07972000  1
  C  C250  1  0.44610000  0.01994000  0.37805000  1
  C  C251  1  0.44610000  0.48006000  0.12195000  1
  C  C252  1  0.46720000  0.50115000  0.68783000  1
  C  C253  1  0.46720000  0.99885000  0.81217000  1
  C  C254  1  0.46940000  0.51200000  0.74516000  1
  C  C255  1  0.46940000  0.98800000  0.75484000  1
  C  C256  1  0.48460000  0.61520000  0.09170000  1
  C  C257  1  0.48460000  0.88480000  0.40830000  1
  C  C258  1  0.48930000  0.67010000  0.06950000  1
  C  C259  1  0.48930000  0.82990000  0.43050000  1
  C  C260  1  0.51070000  0.17010000  0.56950000  1
  C  C261  1  0.51070000  0.32990000  0.93050000  1
  C  C262  1  0.51540000  0.11520000  0.59170000  1
  C  C263  1  0.51540000  0.38480000  0.90830000  1
  C  C264  1  0.53060000  0.01200000  0.24516000  1
  C  C265  1  0.53060000  0.48800000  0.25484000  1
  C  C266  1  0.53280000  0.00115000  0.18783000  1
  C  C267  1  0.53280000  0.49885000  0.31217000  1
  C  C268  1  0.55390000  0.51994000  0.87805000  1
  C  C269  1  0.55390000  0.98006000  0.62195000  1
  C  C270  1  0.56170000  0.56000000  0.92028000  1
  C  C271  1  0.56170000  0.94000000  0.57972000  1
  C  C272  1  0.56720000  0.58590000  0.10460000  1
  C  C273  1  0.56720000  0.91410000  0.39540000  1
  C  C274  1  0.56930000  0.52715000  0.21657000  1
  C  C275  1  0.56930000  0.97285000  0.28343000  1
  C  C276  1  0.57250000  0.56090000  0.39460000  1
  C  C277  1  0.57250000  0.93910000  0.10540000  1
  C  C278  1  0.57360000  0.54796000  0.33283000  1
  C  C279  1  0.57360000  0.95204000  0.16717000  1
  C  C280  1  0.57660000  0.69570000  0.06040000  1
  C  C281  1  0.57660000  0.80430000  0.43960000  1
  C  C282  1  0.58100000  0.74350000  0.46190000  1
  C  C283  1  0.58100000  0.75650000  0.03810000  1
  C  C284  1  0.58650000  0.11164000  0.05274000  1
  C  C285  1  0.58650000  0.38836000  0.44726000  1
  C  C286  1  0.61160000  0.57640000  0.23793000  1
  C  C287  1  0.61160000  0.92360000  0.26207000  1
  C  C288  1  0.61280000  0.58660000  0.29557000  1
  C  C289  1  0.61280000  0.91340000  0.20443000  1
  C  C290  1  0.63870000  0.00220000  0.64417000  1
  C  C291  1  0.63870000  0.49780000  0.85583000  1
  C  C292  1  0.64760000  0.57684000  0.94064000  1
  C  C293  1  0.64760000  0.92316000  0.55936000  1
  C  C294  1  0.65450000  0.61150000  0.09550000  1
  C  C295  1  0.65450000  0.88850000  0.40450000  1
  C  C296  1  0.65920000  0.66640000  0.07340000  1
  C  C297  1  0.65920000  0.83360000  0.42660000  1
  C  C298  1  0.66340000  0.02975000  0.38612000  1
  C  C299  1  0.66340000  0.47025000  0.11388000  1
  C  C300  1  0.67700000  0.08628000  0.07339000  1
  C  C301  1  0.67700000  0.41372000  0.42661000  1
  C  C302  1  0.67750000  0.56490000  0.55089000  1
  C  C303  1  0.67750000  0.93510000  0.94911000  1
  C  C304  1  0.68600000  0.02998000  0.44311000  1
  C  C305  1  0.68600000  0.47002000  0.05689000  1
  C  C306  1  0.69950000  0.09038000  0.12934000  1
  C  C307  1  0.69950000  0.40962000  0.37066000  1
  C  C308  1  0.72210000  0.06110000  0.35048000  1
  C  C309  1  0.72210000  0.43890000  0.14952000  1
  C  C310  1  0.72560000  0.51370000  0.87759000  1
  C  C311  1  0.72560000  0.98630000  0.62241000  1
  C  C312  1  0.73110000  0.55166000  0.92068000  1
  C  C313  1  0.73110000  0.94834000  0.57932000  1
  C  C314  1  0.73470000  0.05809000  0.03730000  1
  C  C315  1  0.73470000  0.44191000  0.46270000  1
  C  C316  1  0.76530000  0.05809000  0.46270000  1
  C  C317  1  0.76530000  0.44191000  0.03730000  1
  C  C318  1  0.76890000  0.55166000  0.57932000  1
  C  C319  1  0.76890000  0.94834000  0.92068000  1
  C  C320  1  0.77440000  0.51370000  0.62241000  1
  C  C321  1  0.77440000  0.98630000  0.87759000  1
  C  C322  1  0.77790000  0.06110000  0.14952000  1
  C  C323  1  0.77790000  0.43890000  0.35048000  1
  C  C324  1  0.80050000  0.09038000  0.37066000  1
  C  C325  1  0.80050000  0.40962000  0.12934000  1
  C  C326  1  0.81400000  0.02998000  0.05689000  1
  C  C327  1  0.81400000  0.47002000  0.44311000  1
  C  C328  1  0.82250000  0.56490000  0.94911000  1
  C  C329  1  0.82250000  0.93510000  0.55089000  1
  C  C330  1  0.82300000  0.08628000  0.42661000  1
  C  C331  1  0.82300000  0.41372000  0.07339000  1
  C  C332  1  0.83660000  0.02975000  0.11388000  1
  C  C333  1  0.83660000  0.47025000  0.38612000  1
  C  C334  1  0.84080000  0.66640000  0.42660000  1
  C  C335  1  0.84080000  0.83360000  0.07340000  1
  C  C336  1  0.84550000  0.61150000  0.40450000  1
  C  C337  1  0.84550000  0.88850000  0.09550000  1
  C  C338  1  0.85240000  0.57684000  0.55936000  1
  C  C339  1  0.85240000  0.92316000  0.94064000  1
  C  C340  1  0.86130000  0.00220000  0.85583000  1
  C  C341  1  0.86130000  0.49780000  0.64417000  1
  C  C342  1  0.88720000  0.58660000  0.20443000  1
  C  C343  1  0.88720000  0.91340000  0.29557000  1
  C  C344  1  0.88840000  0.57640000  0.26207000  1
  C  C345  1  0.88840000  0.92360000  0.23793000  1
  C  C346  1  0.91350000  0.11164000  0.44726000  1
  C  C347  1  0.91350000  0.38836000  0.05274000  1
  C  C348  1  0.91900000  0.74350000  0.03810000  1
  C  C349  1  0.91900000  0.75650000  0.46190000  1
  C  C350  1  0.92340000  0.69570000  0.43960000  1
  C  C351  1  0.92340000  0.80430000  0.06040000  1
  C  C352  1  0.92640000  0.54796000  0.16717000  1
  C  C353  1  0.92640000  0.95204000  0.33283000  1
  C  C354  1  0.92750000  0.56090000  0.10540000  1
  C  C355  1  0.92750000  0.93910000  0.39460000  1
  C  C356  1  0.93070000  0.52715000  0.28343000  1
  C  C357  1  0.93070000  0.97285000  0.21657000  1
  C  C358  1  0.93280000  0.58590000  0.39540000  1
  C  C359  1  0.93280000  0.91410000  0.10460000  1
  C  C360  1  0.93830000  0.56000000  0.57972000  1
  C  C361  1  0.93830000  0.94000000  0.92028000  1
  C  C362  1  0.94610000  0.51994000  0.62195000  1
  C  C363  1  0.94610000  0.98006000  0.87805000  1
  C  C364  1  0.96720000  0.00115000  0.31217000  1
  C  C365  1  0.96720000  0.49885000  0.18783000  1
  C  C366  1  0.96940000  0.01200000  0.25484000  1
  C  C367  1  0.96940000  0.48800000  0.24516000  1
  C  C368  1  0.98460000  0.11520000  0.90830000  1
  C  C369  1  0.98460000  0.38480000  0.59170000  1
  C  C370  1  0.98930000  0.17010000  0.93050000  1
  C  C371  1  0.98930000  0.32990000  0.56950000  1
  O  O372  1  0.00870000  0.21480000  0.53300000  1
  O  O373  1  0.00870000  0.28520000  0.96700000  1
  O  O374  1  0.04720000  0.65101000  0.92239000  1
  O  O375  1  0.04720000  0.84899000  0.57761000  1
  O  O376  1  0.05160000  0.59072000  0.99303000  1
  O  O377  1  0.05160000  0.90928000  0.50697000  1
  O  O378  1  0.05720000  0.01949000  0.57369000  1
  O  O379  1  0.05720000  0.48051000  0.92631000  1
  O  O380  1  0.08570000  0.11100000  0.59050000  1
  O  O381  1  0.08570000  0.38900000  0.90950000  1
  O  O382  1  0.11720000  0.02537000  0.45109000  1
  O  O383  1  0.11720000  0.47463000  0.04891000  1
  O  O384  1  0.15780000  0.22300000  0.52400000  1
  O  O385  1  0.15780000  0.27700000  0.97600000  1
  O  O386  1  0.16721000  0.11465000  0.46807000  1
  O  O387  1  0.16721000  0.38535000  0.03193000  1
  O  O388  1  0.33279000  0.11465000  0.03193000  1
  O  O389  1  0.33279000  0.38535000  0.46807000  1
  O  O390  1  0.34220000  0.22300000  0.97600000  1
  O  O391  1  0.34220000  0.27700000  0.52400000  1
  O  O392  1  0.38280000  0.02537000  0.04891000  1
  O  O393  1  0.38280000  0.47463000  0.45109000  1
  O  O394  1  0.41430000  0.11100000  0.90950000  1
  O  O395  1  0.41430000  0.38900000  0.59050000  1
  O  O396  1  0.44280000  0.01949000  0.92631000  1
  O  O397  1  0.44280000  0.48051000  0.57369000  1
  O  O398  1  0.44840000  0.59072000  0.50697000  1
  O  O399  1  0.44840000  0.90928000  0.99303000  1
  O  O400  1  0.45280000  0.65101000  0.57761000  1
  O  O401  1  0.45280000  0.84899000  0.92239000  1
  O  O402  1  0.49130000  0.21480000  0.96700000  1
  O  O403  1  0.49130000  0.28520000  0.53300000  1
  O  O404  1  0.50870000  0.71480000  0.46700000  1
  O  O405  1  0.50870000  0.78520000  0.03300000  1
  O  O406  1  0.54720000  0.15101000  0.07761000  1
  O  O407  1  0.54720000  0.34899000  0.42239000  1
  O  O408  1  0.55160000  0.09072000  0.00697000  1
  O  O409  1  0.55160000  0.40928000  0.49303000  1
  O  O410  1  0.55720000  0.51949000  0.42631000  1
  O  O411  1  0.55720000  0.98051000  0.07369000  1
  O  O412  1  0.58570000  0.61100000  0.40950000  1
  O  O413  1  0.58570000  0.88900000  0.09050000  1
  O  O414  1  0.61720000  0.52537000  0.54891000  1
  O  O415  1  0.61720000  0.97463000  0.95109000  1
  O  O416  1  0.65780000  0.72300000  0.47600000  1
  O  O417  1  0.65780000  0.77700000  0.02400000  1
  O  O418  1  0.66721000  0.61465000  0.53193000  1
  O  O419  1  0.66721000  0.88535000  0.96807000  1
  O  O420  1  0.83279000  0.61465000  0.96807000  1
  O  O421  1  0.83279000  0.88535000  0.53193000  1
  O  O422  1  0.84220000  0.72300000  0.02400000  1
  O  O423  1  0.84220000  0.77700000  0.47600000  1
  O  O424  1  0.88280000  0.52537000  0.95109000  1
  O  O425  1  0.88280000  0.97463000  0.54891000  1
  O  O426  1  0.91430000  0.61100000  0.09050000  1
  O  O427  1  0.91430000  0.88900000  0.40950000  1
  O  O428  1  0.94280000  0.51949000  0.07369000  1
  O  O429  1  0.94280000  0.98051000  0.42631000  1
  O  O430  1  0.94840000  0.09072000  0.49303000  1
  O  O431  1  0.94840000  0.40928000  0.00697000  1
  O  O432  1  0.95280000  0.15101000  0.42239000  1
  O  O433  1  0.95280000  0.34899000  0.07761000  1
  O  O434  1  0.99130000  0.71480000  0.03300000  1
  O  O435  1  0.99130000  0.78520000  0.46700000  1
