# generated using pymatgen
data_Yb4H18C57(O4F3)6
_symmetry_space_group_name_H-M   'P 1'
_cell_length_a   8.06590000
_cell_length_b   21.26210000
_cell_length_c   22.71820000
_cell_angle_alpha   82.91900000
_cell_angle_beta   82.36900000
_cell_angle_gamma   80.02500000
_symmetry_Int_Tables_number   1
_chemical_formula_structural   Yb4H18C57(O4F3)6
_chemical_formula_sum   'Yb8 H36 C114 O48 F36'
_cell_volume   3783.12846888
_cell_formula_units_Z   2
loop_
 _symmetry_equiv_pos_site_id
 _symmetry_equiv_pos_as_xyz
  1  'x, y, z'
loop_
 _atom_site_type_symbol
 _atom_site_label
 _atom_site_symmetry_multiplicity
 _atom_site_fract_x
 _atom_site_fract_y
 _atom_site_fract_z
 _atom_site_occupancy
  Yb  Yb0  1  0.19759000  0.57709000  0.71559000  1
  Yb  Yb1  1  0.23953000  0.09279000  0.03710000  1
  Yb  Yb2  1  0.38714000  0.47082000  0.43305000  1
  Yb  Yb3  1  0.46276000  0.24693000  0.09610000  1
  Yb  Yb4  1  0.53724000  0.75307000  0.90391000  1
  Yb  Yb5  1  0.61286000  0.52918000  0.56695000  1
  Yb  Yb6  1  0.76047000  0.90721000  0.96290000  1
  Yb  Yb7  1  0.80241000  0.42291000  0.28441000  1
  H  H8  1  0.02060000  0.68620000  0.38960000  1
  H  H9  1  0.02240000  0.72960000  0.58440000  1
  H  H10  1  0.02890000  0.25280000  0.85010000  1
  H  H11  1  0.03860000  0.07150000  0.21620000  1
  H  H12  1  0.10340000  0.08870000  0.74680000  1
  H  H13  1  0.13360000  0.21900000  0.57820000  1
  H  H14  1  0.15260000  0.11470000  0.83720000  1
  H  H15  1  0.22460000  0.75540000  0.68420000  1
  H  H16  1  0.23140000  0.25390000  0.76790000  1
  H  H17  1  0.23560000  0.13780000  0.35150000  1
  H  H18  1  0.28140000  0.85680000  0.64840000  1
  H  H19  1  0.33800000  0.18530000  0.26020000  1
  H  H20  1  0.34020000  0.28210000  0.43110000  1
  H  H21  1  0.35330000  0.91100000  0.78230000  1
  H  H22  1  0.40240000  0.77130000  0.12510000  1
  H  H23  1  0.43590000  0.35580000  0.74740000  1
  H  H24  1  0.44730000  0.78460000  0.36120000  1
  H  H25  1  0.46110000  0.28710000  0.56120000  1
  H  H26  1  0.53890000  0.71290000  0.43880000  1
  H  H27  1  0.55270000  0.21540000  0.63880000  1
  H  H28  1  0.56410000  0.64420000  0.25260000  1
  H  H29  1  0.59760000  0.22870000  0.87490000  1
  H  H30  1  0.64670000  0.08900000  0.21770000  1
  H  H31  1  0.65980000  0.71790000  0.56890000  1
  H  H32  1  0.66200000  0.81470000  0.73980000  1
  H  H33  1  0.71860000  0.14320000  0.35160000  1
  H  H34  1  0.76440000  0.86220000  0.64850000  1
  H  H35  1  0.76860000  0.74610000  0.23210000  1
  H  H36  1  0.77540000  0.24460000  0.31580000  1
  H  H37  1  0.84740000  0.88530000  0.16280000  1
  H  H38  1  0.86640000  0.78100000  0.42180000  1
  H  H39  1  0.89660000  0.91130000  0.25320000  1
  H  H40  1  0.96140000  0.92850000  0.78380000  1
  H  H41  1  0.97110000  0.74720000  0.14990000  1
  H  H42  1  0.97760000  0.27040000  0.41560000  1
  H  H43  1  0.97940000  0.31380000  0.61040000  1
  C  C44  1  0.01380000  0.16720000  0.21360000  1
  C  C45  1  0.01590000  0.01430000  0.67390000  1
  C  C46  1  0.01850000  0.89340000  0.76470000  1
  C  C47  1  0.01870000  0.69440000  0.42900000  1
  C  C48  1  0.01890000  0.72040000  0.54560000  1
  C  C49  1  0.05690000  0.22450000  0.96460000  1
  C  C50  1  0.07130000  0.71020000  0.78690000  1
  C  C51  1  0.07250000  0.77970000  0.75680000  1
  C  C52  1  0.07530000  0.24870000  0.55150000  1
  C  C53  1  0.08190000  0.23640000  0.49200000  1
  C  C54  1  0.09030000  0.12690000  0.46360000  1
  C  C55  1  0.11010000  0.64980000  0.46830000  1
  C  C56  1  0.11350000  0.66430000  0.52640000  1
  C  C57  1  0.13550000  0.90330000  0.71440000  1
  C  C58  1  0.14310000  0.24570000  0.85560000  1
  C  C59  1  0.14680000  0.17160000  0.16030000  1
  C  C60  1  0.16140000  0.05780000  0.77260000  1
  C  C61  1  0.17460000  0.97270000  0.69910000  1
  C  C62  1  0.17560000  0.79010000  0.70530000  1
  C  C63  1  0.18350000  0.58560000  0.45020000  1
  C  C64  1  0.19080000  0.23370000  0.91320000  1
  C  C65  1  0.19280000  0.07350000  0.82640000  1
  C  C66  1  0.19760000  0.18010000  0.46350000  1
  C  C67  1  0.20950000  0.85100000  0.68350000  1
  C  C68  1  0.21540000  0.99610000  0.75640000  1
  C  C69  1  0.21970000  0.62110000  0.56930000  1
  C  C70  1  0.26180000  0.75250000  0.23530000  1
  C  C71  1  0.26550000  0.24720000  0.80600000  1
  C  C72  1  0.27330000  0.20550000  0.40130000  1
  C  C73  1  0.27530000  0.17670000  0.34930000  1
  C  C74  1  0.28400000  0.04620000  0.92710000  1
  C  C75  1  0.28500000  0.02830000  0.86560000  1
  C  C76  1  0.31140000  0.95180000  0.79380000  1
  C  C77  1  0.33020000  0.97830000  0.65210000  1
  C  C78  1  0.33580000  0.20540000  0.29450000  1
  C  C79  1  0.33710000  0.26300000  0.39660000  1
  C  C80  1  0.34560000  0.45550000  0.67420000  1
  C  C81  1  0.34560000  0.96740000  0.84780000  1
  C  C82  1  0.35000000  0.15190000  0.49950000  1
  C  C83  1  0.36200000  0.22950000  0.92000000  1
  C  C84  1  0.37970000  0.41030000  0.55060000  1
  C  C85  1  0.39270000  0.26330000  0.29000000  1
  C  C86  1  0.39560000  0.29220000  0.34220000  1
  C  C87  1  0.40560000  0.38740000  0.66170000  1
  C  C88  1  0.41260000  0.36660000  0.60490000  1
  C  C89  1  0.41560000  0.22540000  0.98020000  1
  C  C90  1  0.41740000  0.83930000  0.25510000  1
  C  C91  1  0.42520000  0.30080000  0.22970000  1
  C  C92  1  0.43410000  0.23920000  0.81230000  1
  C  C93  1  0.43440000  0.91520000  0.88900000  1
  C  C94  1  0.43650000  0.76720000  0.24410000  1
  C  C95  1  0.44670000  0.34220000  0.70950000  1
  C  C96  1  0.46210000  0.30150000  0.59820000  1
  C  C97  1  0.46840000  0.35360000  0.34150000  1
  C  C98  1  0.48370000  0.23190000  0.86990000  1
  C  C99  1  0.48760000  0.74200000  0.35480000  1
  C  C100  1  0.49660000  0.72260000  0.29730000  1
  C  C101  1  0.50340000  0.27740000  0.70270000  1
  C  C102  1  0.51240000  0.25800000  0.64520000  1
  C  C103  1  0.51630000  0.76810000  0.13010000  1
  C  C104  1  0.53160000  0.64640000  0.65850000  1
  C  C105  1  0.53790000  0.69850000  0.40180000  1
  C  C106  1  0.55330000  0.65780000  0.29050000  1
  C  C107  1  0.56350000  0.23280000  0.75590000  1
  C  C108  1  0.56560000  0.08480000  0.11100000  1
  C  C109  1  0.56590000  0.76080000  0.18770000  1
  C  C110  1  0.57480000  0.69920000  0.77030000  1
  C  C111  1  0.58260000  0.16070000  0.74490000  1
  C  C112  1  0.58440000  0.77460000  0.01980000  1
  C  C113  1  0.58740000  0.63340000  0.39510000  1
  C  C114  1  0.59440000  0.61260000  0.33830000  1
  C  C115  1  0.60440000  0.70780000  0.65780000  1
  C  C116  1  0.60730000  0.73670000  0.71000000  1
  C  C117  1  0.62030000  0.58970000  0.44940000  1
  C  C118  1  0.63800000  0.77050000  0.08000000  1
  C  C119  1  0.65000000  0.84810000  0.50050000  1
  C  C120  1  0.65440000  0.03260000  0.15220000  1
  C  C121  1  0.65440000  0.54450000  0.32580000  1
  C  C122  1  0.66290000  0.73700000  0.60340000  1
  C  C123  1  0.66420000  0.79460000  0.70550000  1
  C  C124  1  0.66980000  0.02170000  0.34790000  1
  C  C125  1  0.68860000  0.04820000  0.20620000  1
  C  C126  1  0.71500000  0.97170000  0.13440000  1
  C  C127  1  0.71600000  0.95380000  0.07290000  1
  C  C128  1  0.72470000  0.82330000  0.65070000  1
  C  C129  1  0.72670000  0.79450000  0.59870000  1
  C  C130  1  0.73450000  0.75280000  0.19400000  1
  C  C131  1  0.73820000  0.24750000  0.76470000  1
  C  C132  1  0.78030000  0.37890000  0.43070000  1
  C  C133  1  0.78460000  0.00390000  0.24360000  1
  C  C134  1  0.79050000  0.14900000  0.31650000  1
  C  C135  1  0.80240000  0.81990000  0.53650000  1
  C  C136  1  0.80720000  0.92650000  0.17360000  1
  C  C137  1  0.80920000  0.76630000  0.08680000  1
  C  C138  1  0.81650000  0.41440000  0.54980000  1
  C  C139  1  0.82440000  0.20990000  0.29470000  1
  C  C140  1  0.82540000  0.02730000  0.30090000  1
  C  C141  1  0.83860000  0.94220000  0.22740000  1
  C  C142  1  0.85320000  0.82840000  0.83970000  1
  C  C143  1  0.85690000  0.75430000  0.14440000  1
  C  C144  1  0.86450000  0.09670000  0.28560000  1
  C  C145  1  0.88650000  0.33570000  0.47360000  1
  C  C146  1  0.88990000  0.35020000  0.53170000  1
  C  C147  1  0.90970000  0.87310000  0.53640000  1
  C  C148  1  0.91810000  0.76360000  0.50800000  1
  C  C149  1  0.92470000  0.75130000  0.44850000  1
  C  C150  1  0.92750000  0.22030000  0.24320000  1
  C  C151  1  0.92870000  0.28980000  0.21310000  1
  C  C152  1  0.94310000  0.77550000  0.03540000  1
  C  C153  1  0.98110000  0.27960000  0.45440000  1
  C  C154  1  0.98130000  0.30560000  0.57100000  1
  C  C155  1  0.98150000  0.10660000  0.23530000  1
  C  C156  1  0.98410000  0.98570000  0.32610000  1
  C  C157  1  0.98620000  0.83280000  0.78640000  1
  O  O158  1  0.05210000  0.72900000  0.02140000  1
  O  O159  1  0.05790000  0.16720000  0.98910000  1
  O  O160  1  0.07000000  0.66830000  0.75260000  1
  O  O161  1  0.08210000  0.70130000  0.84160000  1
  O  O162  1  0.14290000  0.60720000  0.62142000  1
  O  O163  1  0.16180000  0.12940000  0.12480000  1
  O  O164  1  0.16390000  0.03090000  0.96590000  1
  O  O165  1  0.17610000  0.53840000  0.49000000  1
  O  O166  1  0.20670000  0.46830000  0.70600000  1
  O  O167  1  0.23810000  0.21420000  0.15690000  1
  O  O168  1  0.25310000  0.57750000  0.39764000  1
  O  O169  1  0.30750000  0.39300000  0.51097000  1
  O  O170  1  0.35110000  0.19070000  0.02381000  1
  O  O171  1  0.37270000  0.60260000  0.55347000  1
  O  O172  1  0.37330000  0.36020000  0.22440000  1
  O  O173  1  0.37960000  0.39720000  0.37000000  1
  O  O174  1  0.38590000  0.64490000  0.68565000  1
  O  O175  1  0.38980000  0.07810000  0.94090000  1
  O  O176  1  0.43190000  0.49990000  0.65634000  1
  O  O177  1  0.43770000  0.46290000  0.54220000  1
  O  O178  1  0.44260000  0.85850000  0.87820000  1
  O  O179  1  0.47900000  0.74020000  0.01020000  1
  O  O180  1  0.49310000  0.93250000  0.93330000  1
  O  O181  1  0.49860000  0.26920000  0.18600000  1
  O  O182  1  0.50140000  0.73080000  0.81400000  1
  O  O183  1  0.50690000  0.06750000  0.06670000  1
  O  O184  1  0.52100000  0.25980000  0.98980000  1
  O  O185  1  0.55740000  0.14150000  0.12180000  1
  O  O186  1  0.56230000  0.53710000  0.45780000  1
  O  O187  1  0.56810000  0.50010000  0.34366000  1
  O  O188  1  0.61020000  0.92190000  0.05910000  1
  O  O189  1  0.61410000  0.35510000  0.31435000  1
  O  O190  1  0.62040000  0.60280000  0.63000000  1
  O  O191  1  0.62670000  0.63980000  0.77560000  1
  O  O192  1  0.62730000  0.39740000  0.44653000  1
  O  O193  1  0.64890000  0.80930000  0.97619000  1
  O  O194  1  0.69250000  0.60700000  0.48903000  1
  O  O195  1  0.74690000  0.42250000  0.60236000  1
  O  O196  1  0.76190000  0.78580000  0.84310000  1
  O  O197  1  0.79330000  0.53170000  0.29400000  1
  O  O198  1  0.82390000  0.46160000  0.51000000  1
  O  O199  1  0.83610000  0.96910000  0.03410000  1
  O  O200  1  0.83820000  0.87060000  0.87520000  1
  O  O201  1  0.85710000  0.39280000  0.37858000  1
  O  O202  1  0.91790000  0.29870000  0.15840000  1
  O  O203  1  0.93000000  0.33170000  0.24740000  1
  O  O204  1  0.94210000  0.83280000  0.01090000  1
  O  O205  1  0.94790000  0.27100000  0.97860000  1
  F  F206  1  0.00760000  0.11330000  0.51727000  1
  F  F207  1  0.02770000  0.85423000  0.57406000  1
  F  F208  1  0.03140000  0.01250000  0.36950000  1
  F  F209  1  0.04470000  0.07372000  0.65029000  1
  F  F210  1  0.11480000  0.97814000  0.28361000  1
  F  F211  1  0.16080000  0.74750000  0.28660000  1
  F  F212  1  0.17630000  0.79950000  0.19884000  1
  F  F213  1  0.18040000  0.07242000  0.44681000  1
  F  F214  1  0.27260000  0.69840000  0.21037000  1
  F  F215  1  0.28630000  0.85560000  0.29677000  1
  F  F216  1  0.30200000  0.12030000  0.55212000  1
  F  F217  1  0.30310000  0.96820000  0.59774000  1
  F  F218  1  0.37680000  0.03591000  0.64811000  1
  F  F219  1  0.38710000  0.87840000  0.20600000  1
  F  F220  1  0.43190000  0.19697000  0.51079000  1
  F  F221  1  0.44420000  0.14770000  0.72613000  1
  F  F222  1  0.46240000  0.10990000  0.46900000  1
  F  F223  1  0.46310000  0.93571000  0.66758000  1
  F  F224  1  0.53690000  0.06429000  0.33242000  1
  F  F225  1  0.53760000  0.89010000  0.53100000  1
  F  F226  1  0.55580000  0.85230000  0.27387000  1
  F  F227  1  0.56810000  0.80303000  0.48921000  1
  F  F228  1  0.61290000  0.12160000  0.79400000  1
  F  F229  1  0.62320000  0.96409000  0.35189000  1
  F  F230  1  0.69690000  0.03180000  0.40226000  1
  F  F231  1  0.69800000  0.87970000  0.44788000  1
  F  F232  1  0.71370000  0.14440000  0.70323000  1
  F  F233  1  0.72740000  0.30160000  0.78963000  1
  F  F234  1  0.81960000  0.92758000  0.55319000  1
  F  F235  1  0.82370000  0.20050000  0.80116000  1
  F  F236  1  0.83920000  0.25250000  0.71340000  1
  F  F237  1  0.88520000  0.02186000  0.71639000  1
  F  F238  1  0.95530000  0.92628000  0.34971000  1
  F  F239  1  0.96860000  0.98750000  0.63050000  1
  F  F240  1  0.97230000  0.14577000  0.42594000  1
  F  F241  1  0.99240000  0.88670000  0.48273000  1
