# generated using pymatgen
data_ZnH14C20(NO2)2
_symmetry_space_group_name_H-M   'P 1'
_cell_length_a   13.57070000
_cell_length_b   15.00600000
_cell_length_c   20.07400000
_cell_angle_alpha   90.00000000
_cell_angle_beta   90.00000000
_cell_angle_gamma   90.00000000
_symmetry_Int_Tables_number   1
_chemical_formula_structural   ZnH14C20(NO2)2
_chemical_formula_sum   'Zn8 H112 C160 N16 O32'
_cell_volume   4087.90798639
_cell_formula_units_Z   8
loop_
 _symmetry_equiv_pos_site_id
 _symmetry_equiv_pos_as_xyz
  1  'x, y, z'
loop_
 _atom_site_type_symbol
 _atom_site_label
 _atom_site_symmetry_multiplicity
 _atom_site_fract_x
 _atom_site_fract_y
 _atom_site_fract_z
 _atom_site_occupancy
  Zn  Zn0  1  0.00248000  0.10974000  0.56487000  1
  Zn  Zn1  1  0.00248000  0.39026000  0.06487000  1
  Zn  Zn2  1  0.49752000  0.60974000  0.56487000  1
  Zn  Zn3  1  0.49752000  0.89026000  0.06487000  1
  Zn  Zn4  1  0.50248000  0.10974000  0.93513000  1
  Zn  Zn5  1  0.50248000  0.39026000  0.43513000  1
  Zn  Zn6  1  0.99752000  0.60974000  0.93513000  1
  Zn  Zn7  1  0.99752000  0.89026000  0.43513000  1
  H  H8  1  0.00080000  0.72250000  0.61190000  1
  H  H9  1  0.00080000  0.77750000  0.11190000  1
  H  H10  1  0.00370000  0.65490000  0.71520000  1
  H  H11  1  0.00370000  0.84510000  0.21520000  1
  H  H12  1  0.00690000  0.00360000  0.09020000  1
  H  H13  1  0.00690000  0.49640000  0.59020000  1
  H  H14  1  0.00740000  0.10680000  0.19630000  1
  H  H15  1  0.00740000  0.39320000  0.69630000  1
  H  H16  1  0.00840000  0.11780000  0.01590000  1
  H  H17  1  0.00840000  0.38220000  0.51590000  1
  H  H18  1  0.01080000  0.03640000  0.29890000  1
  H  H19  1  0.01080000  0.46360000  0.79890000  1
  H  H20  1  0.14490000  0.63630000  0.47970000  1
  H  H21  1  0.14490000  0.86370000  0.97970000  1
  H  H22  1  0.14640000  0.01850000  0.88390000  1
  H  H23  1  0.14640000  0.48150000  0.38390000  1
  H  H24  1  0.16380000  0.00050000  0.15020000  1
  H  H25  1  0.16380000  0.49950000  0.65020000  1
  H  H26  1  0.16620000  0.68900000  0.02220000  1
  H  H27  1  0.16620000  0.81100000  0.52220000  1
  H  H28  1  0.16930000  0.17360000  0.04500000  1
  H  H29  1  0.16930000  0.32640000  0.54500000  1
  H  H30  1  0.17140000  0.03460000  0.65430000  1
  H  H31  1  0.17140000  0.46540000  0.15430000  1
  H  H32  1  0.18700000  0.53960000  0.86550000  1
  H  H33  1  0.18700000  0.96040000  0.36550000  1
  H  H34  1  0.19100000  0.16760000  0.48930000  1
  H  H35  1  0.19100000  0.33240000  0.98930000  1
  H  H36  1  0.30900000  0.66760000  0.48930000  1
  H  H37  1  0.30900000  0.83240000  0.98930000  1
  H  H38  1  0.31300000  0.03960000  0.86550000  1
  H  H39  1  0.31300000  0.46040000  0.36550000  1
  H  H40  1  0.32860000  0.53460000  0.65430000  1
  H  H41  1  0.32860000  0.96540000  0.15430000  1
  H  H42  1  0.33070000  0.67360000  0.04500000  1
  H  H43  1  0.33070000  0.82640000  0.54500000  1
  H  H44  1  0.33380000  0.18900000  0.02220000  1
  H  H45  1  0.33380000  0.31100000  0.52220000  1
  H  H46  1  0.33620000  0.50050000  0.15020000  1
  H  H47  1  0.33620000  0.99950000  0.65020000  1
  H  H48  1  0.35360000  0.51850000  0.88390000  1
  H  H49  1  0.35360000  0.98150000  0.38390000  1
  H  H50  1  0.35510000  0.13630000  0.47970000  1
  H  H51  1  0.35510000  0.36370000  0.97970000  1
  H  H52  1  0.48920000  0.53640000  0.29890000  1
  H  H53  1  0.48920000  0.96360000  0.79890000  1
  H  H54  1  0.49160000  0.61780000  0.01590000  1
  H  H55  1  0.49160000  0.88220000  0.51590000  1
  H  H56  1  0.49260000  0.60680000  0.19630000  1
  H  H57  1  0.49260000  0.89320000  0.69630000  1
  H  H58  1  0.49310000  0.50360000  0.09020000  1
  H  H59  1  0.49310000  0.99640000  0.59020000  1
  H  H60  1  0.49630000  0.15490000  0.71520000  1
  H  H61  1  0.49630000  0.34510000  0.21520000  1
  H  H62  1  0.49920000  0.22250000  0.61190000  1
  H  H63  1  0.49920000  0.27750000  0.11190000  1
  H  H64  1  0.50080000  0.72250000  0.88810000  1
  H  H65  1  0.50080000  0.77750000  0.38810000  1
  H  H66  1  0.50370000  0.65490000  0.78480000  1
  H  H67  1  0.50370000  0.84510000  0.28480000  1
  H  H68  1  0.50690000  0.00360000  0.40980000  1
  H  H69  1  0.50690000  0.49640000  0.90980000  1
  H  H70  1  0.50740000  0.10680000  0.30370000  1
  H  H71  1  0.50740000  0.39320000  0.80370000  1
  H  H72  1  0.50840000  0.11780000  0.48410000  1
  H  H73  1  0.50840000  0.38220000  0.98410000  1
  H  H74  1  0.51080000  0.03640000  0.20110000  1
  H  H75  1  0.51080000  0.46360000  0.70110000  1
  H  H76  1  0.64490000  0.63630000  0.02030000  1
  H  H77  1  0.64490000  0.86370000  0.52030000  1
  H  H78  1  0.64640000  0.01850000  0.61610000  1
  H  H79  1  0.64640000  0.48150000  0.11610000  1
  H  H80  1  0.66380000  0.00050000  0.34980000  1
  H  H81  1  0.66380000  0.49950000  0.84980000  1
  H  H82  1  0.66620000  0.68900000  0.47780000  1
  H  H83  1  0.66620000  0.81100000  0.97780000  1
  H  H84  1  0.66930000  0.17360000  0.45500000  1
  H  H85  1  0.66930000  0.32640000  0.95500000  1
  H  H86  1  0.67140000  0.03460000  0.84570000  1
  H  H87  1  0.67140000  0.46540000  0.34570000  1
  H  H88  1  0.68700000  0.53960000  0.63450000  1
  H  H89  1  0.68700000  0.96040000  0.13450000  1
  H  H90  1  0.69100000  0.16760000  0.01070000  1
  H  H91  1  0.69100000  0.33240000  0.51070000  1
  H  H92  1  0.80900000  0.66760000  0.01070000  1
  H  H93  1  0.80900000  0.83240000  0.51070000  1
  H  H94  1  0.81300000  0.03960000  0.63450000  1
  H  H95  1  0.81300000  0.46040000  0.13450000  1
  H  H96  1  0.82860000  0.53460000  0.84570000  1
  H  H97  1  0.82860000  0.96540000  0.34570000  1
  H  H98  1  0.83070000  0.67360000  0.45500000  1
  H  H99  1  0.83070000  0.82640000  0.95500000  1
  H  H100  1  0.83380000  0.18900000  0.47780000  1
  H  H101  1  0.83380000  0.31100000  0.97780000  1
  H  H102  1  0.83620000  0.50050000  0.34980000  1
  H  H103  1  0.83620000  0.99950000  0.84980000  1
  H  H104  1  0.85360000  0.51850000  0.61610000  1
  H  H105  1  0.85360000  0.98150000  0.11610000  1
  H  H106  1  0.85510000  0.13630000  0.02030000  1
  H  H107  1  0.85510000  0.36370000  0.52030000  1
  H  H108  1  0.98920000  0.53640000  0.20110000  1
  H  H109  1  0.98920000  0.96360000  0.70110000  1
  H  H110  1  0.99160000  0.61780000  0.48410000  1
  H  H111  1  0.99160000  0.88220000  0.98410000  1
  H  H112  1  0.99260000  0.60680000  0.30370000  1
  H  H113  1  0.99260000  0.89320000  0.80370000  1
  H  H114  1  0.99310000  0.50360000  0.40980000  1
  H  H115  1  0.99310000  0.99640000  0.90980000  1
  H  H116  1  0.99630000  0.15490000  0.78480000  1
  H  H117  1  0.99630000  0.34510000  0.28480000  1
  H  H118  1  0.99920000  0.22250000  0.88810000  1
  H  H119  1  0.99920000  0.27750000  0.38810000  1
  C  C120  1  0.00050000  0.71660000  0.71210000  1
  C  C121  1  0.00050000  0.78340000  0.21210000  1
  C  C122  1  0.00070000  0.22150000  0.66330000  1
  C  C123  1  0.00070000  0.27850000  0.16330000  1
  C  C124  1  0.00130000  0.24300000  0.34970000  1
  C  C125  1  0.00130000  0.25700000  0.84970000  1
  C  C126  1  0.00240000  0.23250000  0.23080000  1
  C  C127  1  0.00240000  0.26750000  0.73080000  1
  C  C128  1  0.00620000  0.14070000  0.23510000  1
  C  C129  1  0.00620000  0.15060000  0.35440000  1
  C  C130  1  0.00620000  0.34940000  0.85440000  1
  C  C131  1  0.00620000  0.35930000  0.73510000  1
  C  C132  1  0.00820000  0.09830000  0.29630000  1
  C  C133  1  0.00820000  0.40170000  0.79630000  1
  C  C134  1  0.00830000  0.10640000  0.42170000  1
  C  C135  1  0.00830000  0.39360000  0.92170000  1
  C  C136  1  0.03730000  0.51530000  0.54830000  1
  C  C137  1  0.03730000  0.98470000  0.04830000  1
  C  C138  1  0.03880000  0.06470000  0.99610000  1
  C  C139  1  0.03880000  0.43530000  0.49610000  1
  C  C140  1  0.13580000  0.55690000  0.56090000  1
  C  C141  1  0.13580000  0.94310000  0.06090000  1
  C  C142  1  0.14010000  0.08730000  0.96990000  1
  C  C143  1  0.14010000  0.41270000  0.46990000  1
  C  C144  1  0.18100000  0.61230000  0.51470000  1
  C  C145  1  0.18100000  0.88770000  0.01470000  1
  C  C146  1  0.18360000  0.05130000  0.91410000  1
  C  C147  1  0.18360000  0.44870000  0.41410000  1
  C  C148  1  0.19240000  0.53130000  0.61550000  1
  C  C149  1  0.19240000  0.96870000  0.11550000  1
  C  C150  1  0.19720000  0.14300000  0.00940000  1
  C  C151  1  0.19720000  0.35700000  0.50940000  1
  C  C152  1  0.20370000  0.65210000  0.99490000  1
  C  C153  1  0.20370000  0.84790000  0.49490000  1
  C  C154  1  0.20850000  0.05350000  0.61800000  1
  C  C155  1  0.20850000  0.44650000  0.11800000  1
  C  C156  1  0.21560000  0.56460000  0.90320000  1
  C  C157  1  0.21560000  0.93540000  0.40320000  1
  C  C158  1  0.22040000  0.13130000  0.52120000  1
  C  C159  1  0.22040000  0.36870000  0.02120000  1
  C  C160  1  0.27960000  0.63130000  0.52120000  1
  C  C161  1  0.27960000  0.86870000  0.02120000  1
  C  C162  1  0.28440000  0.06460000  0.90320000  1
  C  C163  1  0.28440000  0.43540000  0.40320000  1
  C  C164  1  0.29150000  0.55350000  0.61800000  1
  C  C165  1  0.29150000  0.94650000  0.11800000  1
  C  C166  1  0.29630000  0.15210000  0.99490000  1
  C  C167  1  0.29630000  0.34790000  0.49490000  1
  C  C168  1  0.30280000  0.64300000  0.00940000  1
  C  C169  1  0.30280000  0.85700000  0.50940000  1
  C  C170  1  0.30760000  0.03130000  0.61550000  1
  C  C171  1  0.30760000  0.46870000  0.11550000  1
  C  C172  1  0.31640000  0.55130000  0.91410000  1
  C  C173  1  0.31640000  0.94870000  0.41410000  1
  C  C174  1  0.31900000  0.11230000  0.51470000  1
  C  C175  1  0.31900000  0.38770000  0.01470000  1
  C  C176  1  0.35990000  0.58730000  0.96990000  1
  C  C177  1  0.35990000  0.91270000  0.46990000  1
  C  C178  1  0.36420000  0.05690000  0.56090000  1
  C  C179  1  0.36420000  0.44310000  0.06090000  1
  C  C180  1  0.46120000  0.56470000  0.99610000  1
  C  C181  1  0.46120000  0.93530000  0.49610000  1
  C  C182  1  0.46270000  0.01530000  0.54830000  1
  C  C183  1  0.46270000  0.48470000  0.04830000  1
  C  C184  1  0.49170000  0.60640000  0.42170000  1
  C  C185  1  0.49170000  0.89360000  0.92170000  1
  C  C186  1  0.49180000  0.59830000  0.29630000  1
  C  C187  1  0.49180000  0.90170000  0.79630000  1
  C  C188  1  0.49380000  0.64070000  0.23510000  1
  C  C189  1  0.49380000  0.65060000  0.35440000  1
  C  C190  1  0.49380000  0.84940000  0.85440000  1
  C  C191  1  0.49380000  0.85930000  0.73510000  1
  C  C192  1  0.49760000  0.73250000  0.23080000  1
  C  C193  1  0.49760000  0.76750000  0.73080000  1
  C  C194  1  0.49870000  0.74300000  0.34970000  1
  C  C195  1  0.49870000  0.75700000  0.84970000  1
  C  C196  1  0.49930000  0.72150000  0.66330000  1
  C  C197  1  0.49930000  0.77850000  0.16330000  1
  C  C198  1  0.49950000  0.21660000  0.71210000  1
  C  C199  1  0.49950000  0.28340000  0.21210000  1
  C  C200  1  0.50050000  0.71660000  0.78790000  1
  C  C201  1  0.50050000  0.78340000  0.28790000  1
  C  C202  1  0.50070000  0.22150000  0.83670000  1
  C  C203  1  0.50070000  0.27850000  0.33670000  1
  C  C204  1  0.50130000  0.24300000  0.15030000  1
  C  C205  1  0.50130000  0.25700000  0.65030000  1
  C  C206  1  0.50240000  0.23250000  0.26920000  1
  C  C207  1  0.50240000  0.26750000  0.76920000  1
  C  C208  1  0.50620000  0.14070000  0.26490000  1
  C  C209  1  0.50620000  0.15060000  0.14560000  1
  C  C210  1  0.50620000  0.34940000  0.64560000  1
  C  C211  1  0.50620000  0.35930000  0.76490000  1
  C  C212  1  0.50820000  0.09830000  0.20370000  1
  C  C213  1  0.50820000  0.40170000  0.70370000  1
  C  C214  1  0.50830000  0.10640000  0.07830000  1
  C  C215  1  0.50830000  0.39360000  0.57830000  1
  C  C216  1  0.53730000  0.51530000  0.95170000  1
  C  C217  1  0.53730000  0.98470000  0.45170000  1
  C  C218  1  0.53880000  0.06470000  0.50390000  1
  C  C219  1  0.53880000  0.43530000  0.00390000  1
  C  C220  1  0.63580000  0.55690000  0.93910000  1
  C  C221  1  0.63580000  0.94310000  0.43910000  1
  C  C222  1  0.64010000  0.08730000  0.53010000  1
  C  C223  1  0.64010000  0.41270000  0.03010000  1
  C  C224  1  0.68100000  0.61230000  0.98530000  1
  C  C225  1  0.68100000  0.88770000  0.48530000  1
  C  C226  1  0.68360000  0.05130000  0.58590000  1
  C  C227  1  0.68360000  0.44870000  0.08590000  1
  C  C228  1  0.69240000  0.53130000  0.88450000  1
  C  C229  1  0.69240000  0.96870000  0.38450000  1
  C  C230  1  0.69720000  0.14300000  0.49060000  1
  C  C231  1  0.69720000  0.35700000  0.99060000  1
  C  C232  1  0.70370000  0.65210000  0.50510000  1
  C  C233  1  0.70370000  0.84790000  0.00510000  1
  C  C234  1  0.70850000  0.05350000  0.88200000  1
  C  C235  1  0.70850000  0.44650000  0.38200000  1
  C  C236  1  0.71560000  0.56460000  0.59680000  1
  C  C237  1  0.71560000  0.93540000  0.09680000  1
  C  C238  1  0.72040000  0.13130000  0.97880000  1
  C  C239  1  0.72040000  0.36870000  0.47880000  1
  C  C240  1  0.77960000  0.63130000  0.97880000  1
  C  C241  1  0.77960000  0.86870000  0.47880000  1
  C  C242  1  0.78440000  0.06460000  0.59680000  1
  C  C243  1  0.78440000  0.43540000  0.09680000  1
  C  C244  1  0.79150000  0.55350000  0.88200000  1
  C  C245  1  0.79150000  0.94650000  0.38200000  1
  C  C246  1  0.79630000  0.15210000  0.50510000  1
  C  C247  1  0.79630000  0.34790000  0.00510000  1
  C  C248  1  0.80280000  0.64300000  0.49060000  1
  C  C249  1  0.80280000  0.85700000  0.99060000  1
  C  C250  1  0.80760000  0.03130000  0.88450000  1
  C  C251  1  0.80760000  0.46870000  0.38450000  1
  C  C252  1  0.81640000  0.55130000  0.58590000  1
  C  C253  1  0.81640000  0.94870000  0.08590000  1
  C  C254  1  0.81900000  0.11230000  0.98530000  1
  C  C255  1  0.81900000  0.38770000  0.48530000  1
  C  C256  1  0.85990000  0.58730000  0.53010000  1
  C  C257  1  0.85990000  0.91270000  0.03010000  1
  C  C258  1  0.86420000  0.05690000  0.93910000  1
  C  C259  1  0.86420000  0.44310000  0.43910000  1
  C  C260  1  0.96120000  0.56470000  0.50390000  1
  C  C261  1  0.96120000  0.93530000  0.00390000  1
  C  C262  1  0.96270000  0.01530000  0.95170000  1
  C  C263  1  0.96270000  0.48470000  0.45170000  1
  C  C264  1  0.99170000  0.60640000  0.07830000  1
  C  C265  1  0.99170000  0.89360000  0.57830000  1
  C  C266  1  0.99180000  0.59830000  0.20370000  1
  C  C267  1  0.99180000  0.90170000  0.70370000  1
  C  C268  1  0.99380000  0.64070000  0.26490000  1
  C  C269  1  0.99380000  0.65060000  0.14560000  1
  C  C270  1  0.99380000  0.84940000  0.64560000  1
  C  C271  1  0.99380000  0.85930000  0.76490000  1
  C  C272  1  0.99760000  0.73250000  0.26920000  1
  C  C273  1  0.99760000  0.76750000  0.76920000  1
  C  C274  1  0.99870000  0.74300000  0.15030000  1
  C  C275  1  0.99870000  0.75700000  0.65030000  1
  C  C276  1  0.99930000  0.72150000  0.83670000  1
  C  C277  1  0.99930000  0.77850000  0.33670000  1
  C  C278  1  0.99950000  0.21660000  0.78790000  1
  C  C279  1  0.99950000  0.28340000  0.28790000  1
  N  N280  1  0.15850000  0.61180000  0.94490000  1
  N  N281  1  0.15850000  0.88820000  0.44490000  1
  N  N282  1  0.16470000  0.10050000  0.57070000  1
  N  N283  1  0.16470000  0.39950000  0.07070000  1
  N  N284  1  0.33530000  0.60050000  0.57070000  1
  N  N285  1  0.33530000  0.89950000  0.07070000  1
  N  N286  1  0.34150000  0.11180000  0.94490000  1
  N  N287  1  0.34150000  0.38820000  0.44490000  1
  N  N288  1  0.65850000  0.61180000  0.55510000  1
  N  N289  1  0.65850000  0.88820000  0.05510000  1
  N  N290  1  0.66470000  0.10050000  0.92930000  1
  N  N291  1  0.66470000  0.39950000  0.42930000  1
  N  N292  1  0.83530000  0.60050000  0.92930000  1
  N  N293  1  0.83530000  0.89950000  0.42930000  1
  N  N294  1  0.84150000  0.11180000  0.55510000  1
  N  N295  1  0.84150000  0.38820000  0.05510000  1
  O  O296  1  0.00480000  0.02500000  0.42430000  1
  O  O297  1  0.00480000  0.47500000  0.92430000  1
  O  O298  1  0.00480000  0.63830000  0.83680000  1
  O  O299  1  0.00480000  0.86170000  0.33680000  1
  O  O300  1  0.00680000  0.23230000  0.11160000  1
  O  O301  1  0.00680000  0.26770000  0.61160000  1
  O  O302  1  0.01270000  0.15870000  0.47210000  1
  O  O303  1  0.01270000  0.34130000  0.97210000  1
  O  O304  1  0.48730000  0.65870000  0.47210000  1
  O  O305  1  0.48730000  0.84130000  0.97210000  1
  O  O306  1  0.49320000  0.73230000  0.11160000  1
  O  O307  1  0.49320000  0.76770000  0.61160000  1
  O  O308  1  0.49520000  0.13830000  0.83680000  1
  O  O309  1  0.49520000  0.36170000  0.33680000  1
  O  O310  1  0.49520000  0.52500000  0.42430000  1
  O  O311  1  0.49520000  0.97500000  0.92430000  1
  O  O312  1  0.50480000  0.02500000  0.07570000  1
  O  O313  1  0.50480000  0.47500000  0.57570000  1
  O  O314  1  0.50480000  0.63830000  0.66320000  1
  O  O315  1  0.50480000  0.86170000  0.16320000  1
  O  O316  1  0.50680000  0.23230000  0.38840000  1
  O  O317  1  0.50680000  0.26770000  0.88840000  1
  O  O318  1  0.51270000  0.15870000  0.02790000  1
  O  O319  1  0.51270000  0.34130000  0.52790000  1
  O  O320  1  0.98730000  0.65870000  0.02790000  1
  O  O321  1  0.98730000  0.84130000  0.52790000  1
  O  O322  1  0.99320000  0.73230000  0.38840000  1
  O  O323  1  0.99320000  0.76770000  0.88840000  1
  O  O324  1  0.99520000  0.13830000  0.66320000  1
  O  O325  1  0.99520000  0.36170000  0.16320000  1
  O  O326  1  0.99520000  0.52500000  0.07570000  1
  O  O327  1  0.99520000  0.97500000  0.57570000  1
