# generated using pymatgen
data_CoH16C24(NO2)2
_symmetry_space_group_name_H-M   'P 1'
_cell_length_a   12.73150000
_cell_length_b   22.61400000
_cell_length_c   22.61400000
_cell_angle_alpha   90.00000000
_cell_angle_beta   90.00000000
_cell_angle_gamma   90.00000000
_symmetry_Int_Tables_number   1
_chemical_formula_structural   CoH16C24(NO2)2
_chemical_formula_sum   'Co8 H128 C192 N16 O32'
_cell_volume   6510.79992857
_cell_formula_units_Z   8
loop_
 _symmetry_equiv_pos_site_id
 _symmetry_equiv_pos_as_xyz
  1  'x, y, z'
loop_
 _atom_site_type_symbol
 _atom_site_label
 _atom_site_symmetry_multiplicity
 _atom_site_fract_x
 _atom_site_fract_y
 _atom_site_fract_z
 _atom_site_occupancy
  Co  Co0  1  0.25249000  0.24376000  0.23827000  1
  Co  Co1  1  0.25249000  0.26173000  0.74376000  1
  Co  Co2  1  0.25249000  0.73827000  0.25624000  1
  Co  Co3  1  0.25249000  0.75624000  0.76173000  1
  Co  Co4  1  0.74751000  0.23827000  0.24376000  1
  Co  Co5  1  0.74751000  0.25624000  0.73827000  1
  Co  Co6  1  0.74751000  0.74376000  0.26173000  1
  Co  Co7  1  0.74751000  0.76173000  0.75624000  1
  H  H8  1  0.02310000  0.13350000  0.77640000  1
  H  H9  1  0.02310000  0.27640000  0.36650000  1
  H  H10  1  0.02310000  0.72360000  0.63350000  1
  H  H11  1  0.02310000  0.86650000  0.22360000  1
  H  H12  1  0.04220000  0.19960000  0.26800000  1
  H  H13  1  0.04220000  0.23200000  0.69960000  1
  H  H14  1  0.04220000  0.76800000  0.30040000  1
  H  H15  1  0.04220000  0.80040000  0.73200000  1
  H  H16  1  0.05220000  0.27800000  0.11240000  1
  H  H17  1  0.05220000  0.38760000  0.77800000  1
  H  H18  1  0.05220000  0.61240000  0.22200000  1
  H  H19  1  0.05220000  0.72200000  0.88760000  1
  H  H20  1  0.10180000  0.32470000  0.02920000  1
  H  H21  1  0.10180000  0.47080000  0.82470000  1
  H  H22  1  0.10180000  0.52920000  0.17530000  1
  H  H23  1  0.10180000  0.67530000  0.97080000  1
  H  H24  1  0.11990000  0.04710000  0.77590000  1
  H  H25  1  0.11990000  0.27590000  0.45290000  1
  H  H26  1  0.11990000  0.72410000  0.54710000  1
  H  H27  1  0.11990000  0.95290000  0.22410000  1
  H  H28  1  0.19590000  0.32760000  0.94140000  1
  H  H29  1  0.19590000  0.44140000  0.17240000  1
  H  H30  1  0.19590000  0.55860000  0.82760000  1
  H  H31  1  0.19590000  0.67240000  0.05860000  1
  H  H32  1  0.22240000  0.02410000  0.26450000  1
  H  H33  1  0.22240000  0.23550000  0.52410000  1
  H  H34  1  0.22240000  0.76450000  0.47590000  1
  H  H35  1  0.22240000  0.97590000  0.73550000  1
  H  H36  1  0.23760000  0.14700000  0.81410000  1
  H  H37  1  0.23760000  0.31410000  0.35300000  1
  H  H38  1  0.23760000  0.68590000  0.64700000  1
  H  H39  1  0.23760000  0.85300000  0.18590000  1
  H  H40  1  0.24790000  0.22710000  0.02670000  1
  H  H41  1  0.24790000  0.47330000  0.72710000  1
  H  H42  1  0.24790000  0.52670000  0.27290000  1
  H  H43  1  0.24790000  0.77290000  0.97330000  1
  H  H44  1  0.30940000  0.11390000  0.26110000  1
  H  H45  1  0.30940000  0.23890000  0.61390000  1
  H  H46  1  0.30940000  0.76110000  0.38610000  1
  H  H47  1  0.30940000  0.88610000  0.73890000  1
  H  H48  1  0.33460000  0.06390000  0.83220000  1
  H  H49  1  0.33460000  0.33220000  0.43610000  1
  H  H50  1  0.33460000  0.66780000  0.56390000  1
  H  H51  1  0.33460000  0.93610000  0.16780000  1
  H  H52  1  0.34010000  0.22670000  0.93920000  1
  H  H53  1  0.34010000  0.43920000  0.27330000  1
  H  H54  1  0.34010000  0.56080000  0.72670000  1
  H  H55  1  0.34010000  0.77330000  0.06080000  1
  H  H56  1  0.39020000  0.02470000  0.19700000  1
  H  H57  1  0.39020000  0.30300000  0.52470000  1
  H  H58  1  0.39020000  0.69700000  0.47530000  1
  H  H59  1  0.39020000  0.97530000  0.80300000  1
  H  H60  1  0.43880000  0.27440000  0.87500000  1
  H  H61  1  0.43880000  0.37500000  0.22560000  1
  H  H62  1  0.43880000  0.62500000  0.77440000  1
  H  H63  1  0.43880000  0.72560000  0.12500000  1
  H  H64  1  0.46010000  0.20910000  0.71040000  1
  H  H65  1  0.46010000  0.21040000  0.29090000  1
  H  H66  1  0.46010000  0.78960000  0.70910000  1
  H  H67  1  0.46010000  0.79090000  0.28960000  1
  H  H68  1  0.48040000  0.11450000  0.19790000  1
  H  H69  1  0.48040000  0.30210000  0.61450000  1
  H  H70  1  0.48040000  0.69790000  0.38550000  1
  H  H71  1  0.48040000  0.88550000  0.80210000  1
  H  H72  1  0.51960000  0.19790000  0.11450000  1
  H  H73  1  0.51960000  0.38550000  0.69790000  1
  H  H74  1  0.51960000  0.61450000  0.30210000  1
  H  H75  1  0.51960000  0.80210000  0.88550000  1
  H  H76  1  0.53990000  0.28960000  0.79090000  1
  H  H77  1  0.53990000  0.29090000  0.21040000  1
  H  H78  1  0.53990000  0.70910000  0.78960000  1
  H  H79  1  0.53990000  0.71040000  0.20910000  1
  H  H80  1  0.56120000  0.12500000  0.72560000  1
  H  H81  1  0.56120000  0.22560000  0.37500000  1
  H  H82  1  0.56120000  0.77440000  0.62500000  1
  H  H83  1  0.56120000  0.87500000  0.27440000  1
  H  H84  1  0.60980000  0.19700000  0.02470000  1
  H  H85  1  0.60980000  0.47530000  0.69700000  1
  H  H86  1  0.60980000  0.52470000  0.30300000  1
  H  H87  1  0.60980000  0.80300000  0.97530000  1
  H  H88  1  0.65990000  0.06080000  0.77330000  1
  H  H89  1  0.65990000  0.27330000  0.43920000  1
  H  H90  1  0.65990000  0.72670000  0.56080000  1
  H  H91  1  0.65990000  0.93920000  0.22670000  1
  H  H92  1  0.66540000  0.16780000  0.93610000  1
  H  H93  1  0.66540000  0.43610000  0.33220000  1
  H  H94  1  0.66540000  0.56390000  0.66780000  1
  H  H95  1  0.66540000  0.83220000  0.06390000  1
  H  H96  1  0.69060000  0.26110000  0.11390000  1
  H  H97  1  0.69060000  0.38610000  0.76110000  1
  H  H98  1  0.69060000  0.61390000  0.23890000  1
  H  H99  1  0.69060000  0.73890000  0.88610000  1
  H  H100  1  0.75210000  0.02670000  0.22710000  1
  H  H101  1  0.75210000  0.27290000  0.52670000  1
  H  H102  1  0.75210000  0.72710000  0.47330000  1
  H  H103  1  0.75210000  0.97330000  0.77290000  1
  H  H104  1  0.76240000  0.18590000  0.85300000  1
  H  H105  1  0.76240000  0.35300000  0.31410000  1
  H  H106  1  0.76240000  0.64700000  0.68590000  1
  H  H107  1  0.76240000  0.81410000  0.14700000  1
  H  H108  1  0.77760000  0.26450000  0.02410000  1
  H  H109  1  0.77760000  0.47590000  0.76450000  1
  H  H110  1  0.77760000  0.52410000  0.23550000  1
  H  H111  1  0.77760000  0.73550000  0.97590000  1
  H  H112  1  0.80410000  0.05860000  0.67240000  1
  H  H113  1  0.80410000  0.17240000  0.44140000  1
  H  H114  1  0.80410000  0.82760000  0.55860000  1
  H  H115  1  0.80410000  0.94140000  0.32760000  1
  H  H116  1  0.88010000  0.22410000  0.95290000  1
  H  H117  1  0.88010000  0.45290000  0.27590000  1
  H  H118  1  0.88010000  0.54710000  0.72410000  1
  H  H119  1  0.88010000  0.77590000  0.04710000  1
  H  H120  1  0.89820000  0.02920000  0.32470000  1
  H  H121  1  0.89820000  0.17530000  0.52920000  1
  H  H122  1  0.89820000  0.82470000  0.47080000  1
  H  H123  1  0.89820000  0.97080000  0.67530000  1
  H  H124  1  0.94780000  0.11240000  0.27800000  1
  H  H125  1  0.94780000  0.22200000  0.61240000  1
  H  H126  1  0.94780000  0.77800000  0.38760000  1
  H  H127  1  0.94780000  0.88760000  0.72200000  1
  H  H128  1  0.95780000  0.26800000  0.19960000  1
  H  H129  1  0.95780000  0.30040000  0.76800000  1
  H  H130  1  0.95780000  0.69960000  0.23200000  1
  H  H131  1  0.95780000  0.73200000  0.80040000  1
  H  H132  1  0.97690000  0.22360000  0.86650000  1
  H  H133  1  0.97690000  0.36650000  0.27640000  1
  H  H134  1  0.97690000  0.63350000  0.72360000  1
  H  H135  1  0.97690000  0.77640000  0.13350000  1
  C  C136  1  0.00230000  0.24460000  0.89990000  1
  C  C137  1  0.00230000  0.39990000  0.25540000  1
  C  C138  1  0.00230000  0.60010000  0.74460000  1
  C  C139  1  0.00230000  0.75540000  0.10010000  1
  C  C140  1  0.01740000  0.00010000  0.72530000  1
  C  C141  1  0.01740000  0.22530000  0.49990000  1
  C  C142  1  0.01740000  0.77470000  0.50010000  1
  C  C143  1  0.01740000  0.99990000  0.27470000  1
  C  C144  1  0.02190000  0.11140000  0.27340000  1
  C  C145  1  0.02190000  0.22660000  0.61140000  1
  C  C146  1  0.02190000  0.77340000  0.38860000  1
  C  C147  1  0.02190000  0.88860000  0.72660000  1
  C  C148  1  0.05490000  0.04910000  0.75540000  1
  C  C149  1  0.05490000  0.25540000  0.45090000  1
  C  C150  1  0.05490000  0.74460000  0.54910000  1
  C  C151  1  0.05490000  0.95090000  0.24460000  1
  C  C152  1  0.07560000  0.30430000  0.99560000  1
  C  C153  1  0.07560000  0.49560000  0.19570000  1
  C  C154  1  0.07560000  0.50440000  0.80430000  1
  C  C155  1  0.07560000  0.69570000  0.00440000  1
  C  C156  1  0.07730000  0.05680000  0.27250000  1
  C  C157  1  0.07730000  0.22750000  0.55680000  1
  C  C158  1  0.07730000  0.77250000  0.44320000  1
  C  C159  1  0.07730000  0.94320000  0.72750000  1
  C  C160  1  0.07930000  0.16320000  0.26740000  1
  C  C161  1  0.07930000  0.23260000  0.66320000  1
  C  C162  1  0.07930000  0.76740000  0.33680000  1
  C  C163  1  0.07930000  0.83680000  0.73260000  1
  C  C164  1  0.09620000  0.27460000  0.89600000  1
  C  C165  1  0.09620000  0.39600000  0.22540000  1
  C  C166  1  0.09620000  0.60400000  0.77460000  1
  C  C167  1  0.09620000  0.72540000  0.10400000  1
  C  C168  1  0.13250000  0.30560000  0.94380000  1
  C  C169  1  0.13250000  0.44380000  0.19440000  1
  C  C170  1  0.13250000  0.55620000  0.80560000  1
  C  C171  1  0.13250000  0.69440000  0.05620000  1
  C  C172  1  0.16120000  0.27150000  0.84150000  1
  C  C173  1  0.16120000  0.34150000  0.22850000  1
  C  C174  1  0.16120000  0.65850000  0.77150000  1
  C  C175  1  0.16120000  0.72850000  0.15850000  1
  C  C176  1  0.18290000  0.05970000  0.26630000  1
  C  C177  1  0.18290000  0.23370000  0.55970000  1
  C  C178  1  0.18290000  0.76630000  0.44030000  1
  C  C179  1  0.18290000  0.94030000  0.73370000  1
  C  C180  1  0.23480000  0.11340000  0.26260000  1
  C  C181  1  0.23480000  0.23740000  0.61340000  1
  C  C182  1  0.23480000  0.76260000  0.38660000  1
  C  C183  1  0.23480000  0.88660000  0.73740000  1
  C  C184  1  0.30410000  0.14250000  0.79550000  1
  C  C185  1  0.30410000  0.29550000  0.35750000  1
  C  C186  1  0.30410000  0.70450000  0.64250000  1
  C  C187  1  0.30410000  0.85750000  0.20450000  1
  C  C188  1  0.31990000  0.21860000  0.13850000  1
  C  C189  1  0.31990000  0.36150000  0.71860000  1
  C  C190  1  0.31990000  0.63850000  0.28140000  1
  C  C191  1  0.31990000  0.78140000  0.86150000  1
  C  C192  1  0.32180000  0.22150000  0.02670000  1
  C  C193  1  0.32180000  0.47330000  0.72150000  1
  C  C194  1  0.32180000  0.52670000  0.27850000  1
  C  C195  1  0.32180000  0.77850000  0.97330000  1
  C  C196  1  0.36090000  0.09290000  0.80560000  1
  C  C197  1  0.36090000  0.30560000  0.40710000  1
  C  C198  1  0.36090000  0.69440000  0.59290000  1
  C  C199  1  0.36090000  0.90710000  0.19440000  1
  C  C200  1  0.37720000  0.22170000  0.97530000  1
  C  C201  1  0.37720000  0.47530000  0.27830000  1
  C  C202  1  0.37720000  0.52470000  0.72170000  1
  C  C203  1  0.37720000  0.77830000  0.02470000  1
  C  C204  1  0.37770000  0.21270000  0.08010000  1
  C  C205  1  0.37770000  0.41990000  0.71270000  1
  C  C206  1  0.37770000  0.58010000  0.28730000  1
  C  C207  1  0.37770000  0.78730000  0.91990000  1
  C  C208  1  0.43330000  0.17860000  0.73500000  1
  C  C209  1  0.43330000  0.23500000  0.32140000  1
  C  C210  1  0.43330000  0.76500000  0.67860000  1
  C  C211  1  0.43330000  0.82140000  0.26500000  1
  C  C212  1  0.45630000  0.08350000  0.77810000  1
  C  C213  1  0.45630000  0.27810000  0.41650000  1
  C  C214  1  0.45630000  0.72190000  0.58350000  1
  C  C215  1  0.45630000  0.91650000  0.22190000  1
  C  C216  1  0.46360000  0.02530000  0.20430000  1
  C  C217  1  0.46360000  0.29570000  0.52530000  1
  C  C218  1  0.46360000  0.70430000  0.47470000  1
  C  C219  1  0.46360000  0.97470000  0.79570000  1
  C  C220  1  0.48230000  0.20410000  0.07860000  1
  C  C221  1  0.48230000  0.42140000  0.70410000  1
  C  C222  1  0.48230000  0.57860000  0.29590000  1
  C  C223  1  0.48230000  0.79590000  0.92140000  1
  C  C224  1  0.48330000  0.21510000  0.97320000  1
  C  C225  1  0.48330000  0.47320000  0.28490000  1
  C  C226  1  0.48330000  0.52680000  0.71510000  1
  C  C227  1  0.48330000  0.78490000  0.02680000  1
  C  C228  1  0.49400000  0.12830000  0.74360000  1
  C  C229  1  0.49400000  0.24360000  0.37170000  1
  C  C230  1  0.49400000  0.75640000  0.62830000  1
  C  C231  1  0.49400000  0.87170000  0.25640000  1
  C  C232  1  0.50600000  0.25640000  0.87170000  1
  C  C233  1  0.50600000  0.37170000  0.24360000  1
  C  C234  1  0.50600000  0.62830000  0.75640000  1
  C  C235  1  0.50600000  0.74360000  0.12830000  1
  C  C236  1  0.51670000  0.02680000  0.78490000  1
  C  C237  1  0.51670000  0.28490000  0.47320000  1
  C  C238  1  0.51670000  0.71510000  0.52680000  1
  C  C239  1  0.51670000  0.97320000  0.21510000  1
  C  C240  1  0.51770000  0.07860000  0.20410000  1
  C  C241  1  0.51770000  0.29590000  0.57860000  1
  C  C242  1  0.51770000  0.70410000  0.42140000  1
  C  C243  1  0.51770000  0.92140000  0.79590000  1
  C  C244  1  0.53640000  0.20430000  0.02530000  1
  C  C245  1  0.53640000  0.47470000  0.70430000  1
  C  C246  1  0.53640000  0.52530000  0.29570000  1
  C  C247  1  0.53640000  0.79570000  0.97470000  1
  C  C248  1  0.54370000  0.22190000  0.91650000  1
  C  C249  1  0.54370000  0.41650000  0.27810000  1
  C  C250  1  0.54370000  0.58350000  0.72190000  1
  C  C251  1  0.54370000  0.77810000  0.08350000  1
  C  C252  1  0.56670000  0.26500000  0.82140000  1
  C  C253  1  0.56670000  0.32140000  0.23500000  1
  C  C254  1  0.56670000  0.67860000  0.76500000  1
  C  C255  1  0.56670000  0.73500000  0.17860000  1
  C  C256  1  0.62230000  0.08010000  0.21270000  1
  C  C257  1  0.62230000  0.28730000  0.58010000  1
  C  C258  1  0.62230000  0.71270000  0.41990000  1
  C  C259  1  0.62230000  0.91990000  0.78730000  1
  C  C260  1  0.62280000  0.02470000  0.77830000  1
  C  C261  1  0.62280000  0.27830000  0.47530000  1
  C  C262  1  0.62280000  0.72170000  0.52470000  1
  C  C263  1  0.62280000  0.97530000  0.22170000  1
  C  C264  1  0.63910000  0.19440000  0.90710000  1
  C  C265  1  0.63910000  0.40710000  0.30560000  1
  C  C266  1  0.63910000  0.59290000  0.69440000  1
  C  C267  1  0.63910000  0.80560000  0.09290000  1
  C  C268  1  0.67820000  0.02670000  0.22150000  1
  C  C269  1  0.67820000  0.27850000  0.52670000  1
  C  C270  1  0.67820000  0.72150000  0.47330000  1
  C  C271  1  0.67820000  0.97330000  0.77850000  1
  C  C272  1  0.68010000  0.13850000  0.21860000  1
  C  C273  1  0.68010000  0.28140000  0.63850000  1
  C  C274  1  0.68010000  0.71860000  0.36150000  1
  C  C275  1  0.68010000  0.86150000  0.78140000  1
  C  C276  1  0.69590000  0.20450000  0.85750000  1
  C  C277  1  0.69590000  0.35750000  0.29550000  1
  C  C278  1  0.69590000  0.64250000  0.70450000  1
  C  C279  1  0.69590000  0.79550000  0.14250000  1
  C  C280  1  0.76520000  0.26260000  0.11340000  1
  C  C281  1  0.76520000  0.38660000  0.76260000  1
  C  C282  1  0.76520000  0.61340000  0.23740000  1
  C  C283  1  0.76520000  0.73740000  0.88660000  1
  C  C284  1  0.81710000  0.26630000  0.05970000  1
  C  C285  1  0.81710000  0.44030000  0.76630000  1
  C  C286  1  0.81710000  0.55970000  0.23370000  1
  C  C287  1  0.81710000  0.73370000  0.94030000  1
  C  C288  1  0.83880000  0.15850000  0.72850000  1
  C  C289  1  0.83880000  0.22850000  0.34150000  1
  C  C290  1  0.83880000  0.77150000  0.65850000  1
  C  C291  1  0.83880000  0.84150000  0.27150000  1
  C  C292  1  0.86750000  0.05620000  0.69440000  1
  C  C293  1  0.86750000  0.19440000  0.44380000  1
  C  C294  1  0.86750000  0.80560000  0.55620000  1
  C  C295  1  0.86750000  0.94380000  0.30560000  1
  C  C296  1  0.90380000  0.10400000  0.72540000  1
  C  C297  1  0.90380000  0.22540000  0.39600000  1
  C  C298  1  0.90380000  0.77460000  0.60400000  1
  C  C299  1  0.90380000  0.89600000  0.27460000  1
  C  C300  1  0.92070000  0.26740000  0.16320000  1
  C  C301  1  0.92070000  0.33680000  0.76740000  1
  C  C302  1  0.92070000  0.66320000  0.23260000  1
  C  C303  1  0.92070000  0.73260000  0.83680000  1
  C  C304  1  0.92270000  0.27250000  0.05680000  1
  C  C305  1  0.92270000  0.44320000  0.77250000  1
  C  C306  1  0.92270000  0.55680000  0.22750000  1
  C  C307  1  0.92270000  0.72750000  0.94320000  1
  C  C308  1  0.92440000  0.00440000  0.69570000  1
  C  C309  1  0.92440000  0.19570000  0.49560000  1
  C  C310  1  0.92440000  0.80430000  0.50440000  1
  C  C311  1  0.92440000  0.99560000  0.30430000  1
  C  C312  1  0.94510000  0.24460000  0.95090000  1
  C  C313  1  0.94510000  0.45090000  0.25540000  1
  C  C314  1  0.94510000  0.54910000  0.74460000  1
  C  C315  1  0.94510000  0.75540000  0.04910000  1
  C  C316  1  0.97810000  0.27340000  0.11140000  1
  C  C317  1  0.97810000  0.38860000  0.77340000  1
  C  C318  1  0.97810000  0.61140000  0.22660000  1
  C  C319  1  0.97810000  0.72660000  0.88860000  1
  C  C320  1  0.98260000  0.27470000  0.99990000  1
  C  C321  1  0.98260000  0.49990000  0.22530000  1
  C  C322  1  0.98260000  0.50010000  0.77470000  1
  C  C323  1  0.98260000  0.72530000  0.00010000  1
  C  C324  1  0.99770000  0.10010000  0.75540000  1
  C  C325  1  0.99770000  0.25540000  0.39990000  1
  C  C326  1  0.99770000  0.74460000  0.60010000  1
  C  C327  1  0.99770000  0.89990000  0.24460000  1
  N  N328  1  0.18180000  0.16490000  0.26100000  1
  N  N329  1  0.18180000  0.23900000  0.66490000  1
  N  N330  1  0.18180000  0.76100000  0.33510000  1
  N  N331  1  0.18180000  0.83510000  0.73900000  1
  N  N332  1  0.34030000  0.18590000  0.75930000  1
  N  N333  1  0.34030000  0.25930000  0.31410000  1
  N  N334  1  0.34030000  0.74070000  0.68590000  1
  N  N335  1  0.34030000  0.81410000  0.24070000  1
  N  N336  1  0.65970000  0.24070000  0.81410000  1
  N  N337  1  0.65970000  0.31410000  0.25930000  1
  N  N338  1  0.65970000  0.68590000  0.74070000  1
  N  N339  1  0.65970000  0.75930000  0.18590000  1
  N  N340  1  0.81820000  0.26100000  0.16490000  1
  N  N341  1  0.81820000  0.33510000  0.76100000  1
  N  N342  1  0.81820000  0.66490000  0.23900000  1
  N  N343  1  0.81820000  0.73900000  0.83510000  1
  O  O344  1  0.12160000  0.24550000  0.79560000  1
  O  O345  1  0.12160000  0.29560000  0.25450000  1
  O  O346  1  0.12160000  0.70440000  0.74550000  1
  O  O347  1  0.12160000  0.75450000  0.20440000  1
  O  O348  1  0.22180000  0.22440000  0.14010000  1
  O  O349  1  0.22180000  0.35990000  0.72440000  1
  O  O350  1  0.22180000  0.64010000  0.27560000  1
  O  O351  1  0.22180000  0.77560000  0.85990000  1
  O  O352  1  0.25340000  0.28970000  0.84010000  1
  O  O353  1  0.25340000  0.34010000  0.21030000  1
  O  O354  1  0.25340000  0.65990000  0.78970000  1
  O  O355  1  0.25340000  0.71030000  0.15990000  1
  O  O356  1  0.37410000  0.21810000  0.18570000  1
  O  O357  1  0.37410000  0.31430000  0.71810000  1
  O  O358  1  0.37410000  0.68570000  0.28190000  1
  O  O359  1  0.37410000  0.78190000  0.81430000  1
  O  O360  1  0.62590000  0.18570000  0.21810000  1
  O  O361  1  0.62590000  0.28190000  0.68570000  1
  O  O362  1  0.62590000  0.71810000  0.31430000  1
  O  O363  1  0.62590000  0.81430000  0.78190000  1
  O  O364  1  0.74660000  0.15990000  0.71030000  1
  O  O365  1  0.74660000  0.21030000  0.34010000  1
  O  O366  1  0.74660000  0.78970000  0.65990000  1
  O  O367  1  0.74660000  0.84010000  0.28970000  1
  O  O368  1  0.77820000  0.14010000  0.22440000  1
  O  O369  1  0.77820000  0.27560000  0.64010000  1
  O  O370  1  0.77820000  0.72440000  0.35990000  1
  O  O371  1  0.77820000  0.85990000  0.77560000  1
  O  O372  1  0.87840000  0.20440000  0.75450000  1
  O  O373  1  0.87840000  0.25450000  0.29560000  1
  O  O374  1  0.87840000  0.74550000  0.70440000  1
  O  O375  1  0.87840000  0.79560000  0.24550000  1
