# generated using pymatgen
data_ZnH18(C13N5)2
_symmetry_space_group_name_H-M   'P 1'
_cell_length_a   12.38040000
_cell_length_b   12.38040000
_cell_length_c   46.50500000
_cell_angle_alpha   90.00000000
_cell_angle_beta   90.00000000
_cell_angle_gamma   90.00000000
_symmetry_Int_Tables_number   1
_chemical_formula_structural   ZnH18(C13N5)2
_chemical_formula_sum   'Zn8 H144 C208 N80'
_cell_volume   7128.02151496
_cell_formula_units_Z   8
loop_
 _symmetry_equiv_pos_site_id
 _symmetry_equiv_pos_as_xyz
  1  'x, y, z'
loop_
 _atom_site_type_symbol
 _atom_site_label
 _atom_site_symmetry_multiplicity
 _atom_site_fract_x
 _atom_site_fract_y
 _atom_site_fract_z
 _atom_site_occupancy
  Zn  Zn0  1  0.18518000  0.81482000  0.25000000  1
  Zn  Zn1  1  0.24361000  0.24361000  0.50000000  1
  Zn  Zn2  1  0.25639000  0.74361000  0.75000000  1
  Zn  Zn3  1  0.31482000  0.31482000  0.00000000  1
  Zn  Zn4  1  0.68518000  0.68518000  0.50000000  1
  Zn  Zn5  1  0.74361000  0.25639000  0.25000000  1
  Zn  Zn6  1  0.75639000  0.75639000  0.00000000  1
  Zn  Zn7  1  0.81482000  0.18518000  0.75000000  1
  H  H8  1  0.00800000  0.75040000  0.29470000  1
  H  H9  1  0.00950000  0.30870000  0.51330000  1
  H  H10  1  0.01700000  0.30320000  0.32880000  1
  H  H11  1  0.03410000  0.69580000  0.72790000  1
  H  H12  1  0.03500000  0.12800000  0.72540000  1
  H  H13  1  0.04320000  0.11830000  0.31450000  1
  H  H14  1  0.04940000  0.78020000  0.54670000  1
  H  H15  1  0.06730000  0.27840000  0.01170000  1
  H  H16  1  0.07020000  0.33360000  0.18660000  1
  H  H17  1  0.08260000  0.17790000  0.83400000  1
  H  H18  1  0.08700000  0.78210000  0.79420000  1
  H  H19  1  0.08940000  0.41050000  0.79760000  1
  H  H20  1  0.08950000  0.58940000  0.04760000  1
  H  H21  1  0.09890000  0.73930000  0.36240000  1
  H  H22  1  0.11830000  0.04320000  0.68550000  1
  H  H23  1  0.12520000  0.28780000  0.39350000  1
  H  H24  1  0.12800000  0.03500000  0.27460000  1
  H  H25  1  0.12820000  0.75180000  0.88360000  1
  H  H26  1  0.15700000  0.21170000  0.90260000  1
  H  H27  1  0.16640000  0.57020000  0.43660000  1
  H  H28  1  0.16820000  0.19660000  0.43560000  1
  H  H29  1  0.17780000  0.71570000  0.18970000  1
  H  H30  1  0.17790000  0.08260000  0.16600000  1
  H  H31  1  0.19130000  0.50950000  0.76330000  1
  H  H32  1  0.19580000  0.46590000  0.47790000  1
  H  H33  1  0.19660000  0.16820000  0.56440000  1
  H  H34  1  0.19680000  0.51700000  0.57880000  1
  H  H35  1  0.21170000  0.15700000  0.09740000  1
  H  H36  1  0.21220000  0.62520000  0.64350000  1
  H  H37  1  0.21570000  0.32220000  0.93970000  1
  H  H38  1  0.21790000  0.91300000  0.70580000  1
  H  H39  1  0.21980000  0.95060000  0.95330000  1
  H  H40  1  0.22160000  0.56730000  0.26170000  1
  H  H41  1  0.23930000  0.40110000  0.11240000  1
  H  H42  1  0.24820000  0.87180000  0.61640000  1
  H  H43  1  0.24960000  0.99200000  0.20530000  1
  H  H44  1  0.25040000  0.49200000  0.04470000  1
  H  H45  1  0.25180000  0.37180000  0.63360000  1
  H  H46  1  0.26070000  0.90110000  0.13760000  1
  H  H47  1  0.27840000  0.06730000  0.98830000  1
  H  H48  1  0.28020000  0.45060000  0.29670000  1
  H  H49  1  0.28210000  0.41300000  0.54420000  1
  H  H50  1  0.28430000  0.82220000  0.31030000  1
  H  H51  1  0.28780000  0.12520000  0.60650000  1
  H  H52  1  0.28830000  0.65700000  0.15260000  1
  H  H53  1  0.30320000  0.01700000  0.67120000  1
  H  H54  1  0.30340000  0.66820000  0.68560000  1
  H  H55  1  0.30420000  0.96590000  0.77210000  1
  H  H56  1  0.30870000  0.00950000  0.48670000  1
  H  H57  1  0.32210000  0.58260000  0.08400000  1
  H  H58  1  0.32220000  0.21570000  0.06030000  1
  H  H59  1  0.33180000  0.69660000  0.81440000  1
  H  H60  1  0.33360000  0.07020000  0.81340000  1
  H  H61  1  0.34300000  0.71170000  0.34740000  1
  H  H62  1  0.37180000  0.25180000  0.36640000  1
  H  H63  1  0.37200000  0.53500000  0.97540000  1
  H  H64  1  0.37480000  0.78780000  0.85650000  1
  H  H65  1  0.38170000  0.54320000  0.56450000  1
  H  H66  1  0.40110000  0.23930000  0.88760000  1
  H  H67  1  0.41050000  0.08940000  0.20240000  1
  H  H68  1  0.41060000  0.91050000  0.45240000  1
  H  H69  1  0.41300000  0.28210000  0.45580000  1
  H  H70  1  0.41740000  0.67790000  0.41600000  1
  H  H71  1  0.42980000  0.83360000  0.06340000  1
  H  H72  1  0.43270000  0.77840000  0.23830000  1
  H  H73  1  0.45060000  0.28020000  0.70330000  1
  H  H74  1  0.45680000  0.61830000  0.93550000  1
  H  H75  1  0.46500000  0.62800000  0.52460000  1
  H  H76  1  0.46590000  0.19580000  0.52210000  1
  H  H77  1  0.48300000  0.80320000  0.92120000  1
  H  H78  1  0.49050000  0.80870000  0.73670000  1
  H  H79  1  0.49200000  0.25040000  0.95530000  1
  H  H80  1  0.50800000  0.74960000  0.45530000  1
  H  H81  1  0.50950000  0.19130000  0.23670000  1
  H  H82  1  0.51700000  0.19680000  0.42120000  1
  H  H83  1  0.53410000  0.80420000  0.02210000  1
  H  H84  1  0.53500000  0.37200000  0.02460000  1
  H  H85  1  0.54320000  0.38170000  0.43550000  1
  H  H86  1  0.54940000  0.71980000  0.20330000  1
  H  H87  1  0.56730000  0.22160000  0.73830000  1
  H  H88  1  0.57020000  0.16640000  0.56340000  1
  H  H89  1  0.58260000  0.32210000  0.91600000  1
  H  H90  1  0.58700000  0.71790000  0.95580000  1
  H  H91  1  0.58940000  0.08950000  0.95240000  1
  H  H92  1  0.58950000  0.91060000  0.70240000  1
  H  H93  1  0.59890000  0.76070000  0.38760000  1
  H  H94  1  0.61830000  0.45680000  0.06450000  1
  H  H95  1  0.62520000  0.21220000  0.35650000  1
  H  H96  1  0.62800000  0.46500000  0.47540000  1
  H  H97  1  0.62820000  0.74820000  0.86640000  1
  H  H98  1  0.65700000  0.28830000  0.84740000  1
  H  H99  1  0.66640000  0.92980000  0.31340000  1
  H  H100  1  0.66820000  0.30340000  0.31440000  1
  H  H101  1  0.67780000  0.78430000  0.56030000  1
  H  H102  1  0.67790000  0.41740000  0.58400000  1
  H  H103  1  0.69130000  0.99050000  0.98670000  1
  H  H104  1  0.69580000  0.03410000  0.27210000  1
  H  H105  1  0.69660000  0.33180000  0.18560000  1
  H  H106  1  0.69680000  0.98300000  0.17120000  1
  H  H107  1  0.71170000  0.34300000  0.65260000  1
  H  H108  1  0.71220000  0.87480000  0.10650000  1
  H  H109  1  0.71570000  0.17780000  0.81030000  1
  H  H110  1  0.71790000  0.58700000  0.04420000  1
  H  H111  1  0.71980000  0.54940000  0.79670000  1
  H  H112  1  0.72160000  0.93270000  0.48830000  1
  H  H113  1  0.73930000  0.09890000  0.63760000  1
  H  H114  1  0.74820000  0.62820000  0.13360000  1
  H  H115  1  0.74960000  0.50800000  0.54470000  1
  H  H116  1  0.75040000  0.00800000  0.70530000  1
  H  H117  1  0.75180000  0.12820000  0.11640000  1
  H  H118  1  0.76070000  0.59890000  0.61240000  1
  H  H119  1  0.77840000  0.43270000  0.76170000  1
  H  H120  1  0.78020000  0.04940000  0.45330000  1
  H  H121  1  0.78210000  0.08700000  0.20580000  1
  H  H122  1  0.78430000  0.67780000  0.43970000  1
  H  H123  1  0.78780000  0.37480000  0.14350000  1
  H  H124  1  0.78830000  0.84300000  0.59740000  1
  H  H125  1  0.80320000  0.48300000  0.07880000  1
  H  H126  1  0.80340000  0.83180000  0.06440000  1
  H  H127  1  0.80420000  0.53410000  0.97790000  1
  H  H128  1  0.80870000  0.49050000  0.26330000  1
  H  H129  1  0.82210000  0.91740000  0.66600000  1
  H  H130  1  0.82220000  0.28430000  0.68970000  1
  H  H131  1  0.83180000  0.80340000  0.93560000  1
  H  H132  1  0.83360000  0.42980000  0.93660000  1
  H  H133  1  0.84300000  0.78830000  0.40260000  1
  H  H134  1  0.87180000  0.24820000  0.38360000  1
  H  H135  1  0.87200000  0.96500000  0.77460000  1
  H  H136  1  0.87480000  0.71220000  0.89350000  1
  H  H137  1  0.88170000  0.95680000  0.18550000  1
  H  H138  1  0.90110000  0.26070000  0.86240000  1
  H  H139  1  0.91050000  0.41060000  0.54760000  1
  H  H140  1  0.91060000  0.58950000  0.29760000  1
  H  H141  1  0.91300000  0.21790000  0.29420000  1
  H  H142  1  0.91740000  0.82210000  0.33400000  1
  H  H143  1  0.92980000  0.66640000  0.68660000  1
  H  H144  1  0.93270000  0.72160000  0.51170000  1
  H  H145  1  0.95060000  0.21980000  0.04670000  1
  H  H146  1  0.95680000  0.88170000  0.81450000  1
  H  H147  1  0.96500000  0.87200000  0.22540000  1
  H  H148  1  0.96590000  0.30420000  0.22790000  1
  H  H149  1  0.98300000  0.69680000  0.82880000  1
  H  H150  1  0.99050000  0.69130000  0.01330000  1
  H  H151  1  0.99200000  0.24960000  0.79470000  1
  C  C152  1  0.00440000  0.39080000  0.13480000  1
  C  C153  1  0.00540000  0.85470000  0.59990000  1
  C  C154  1  0.00690000  0.66410000  0.68600000  1
  C  C155  1  0.00960000  0.91330000  0.21240000  1
  C  C156  1  0.01160000  0.46880000  0.09120000  1
  C  C157  1  0.01310000  0.58810000  0.04750000  1
  C  C158  1  0.01640000  0.82620000  0.29900000  1
  C  C159  1  0.02220000  0.02440000  0.82950000  1
  C  C160  1  0.02380000  0.92930000  0.64410000  1
  C  C161  1  0.02440000  0.02220000  0.17050000  1
  C  C162  1  0.02490000  0.65670000  0.81570000  1
  C  C163  1  0.02690000  0.54580000  0.81720000  1
  C  C164  1  0.02730000  0.21850000  0.04990000  1
  C  C165  1  0.03120000  0.51160000  0.34120000  1
  C  C166  1  0.03650000  0.13310000  0.82280000  1
  C  C167  1  0.03720000  0.04020000  0.31110000  1
  C  C168  1  0.04020000  0.03720000  0.68890000  1
  C  C169  1  0.04580000  0.47310000  0.56720000  1
  C  C170  1  0.04720000  0.35070000  0.52720000  1
  C  C171  1  0.05990000  0.63960000  0.66050000  1
  C  C172  1  0.06830000  0.17940000  0.07630000  1
  C  C173  1  0.07060000  0.68590000  0.71010000  1
  C  C174  1  0.07070000  0.97620000  0.85590000  1
  C  C175  1  0.08670000  0.99040000  0.28760000  1
  C  C176  1  0.08750000  0.66160000  0.36260000  1
  C  C177  1  0.08810000  0.48690000  0.79750000  1
  C  C178  1  0.08820000  0.70610000  0.79530000  1
  C  C179  1  0.09680000  0.25260000  0.02950000  1
  C  C180  1  0.10920000  0.50440000  0.38480000  1
  C  C181  1  0.11990000  0.82940000  0.88200000  1
  C  C182  1  0.13310000  0.03650000  0.17720000  1
  C  C183  1  0.13960000  0.44010000  0.41050000  1
  C  C184  1  0.14280000  0.32700000  0.41040000  1
  C  C185  1  0.14530000  0.99460000  0.90010000  1
  C  C186  1  0.14930000  0.54720000  0.77720000  1
  C  C187  1  0.15670000  0.47510000  0.56570000  1
  C  C188  1  0.16160000  0.41250000  0.11260000  1
  C  C189  1  0.16410000  0.49310000  0.43600000  1
  C  C190  1  0.16680000  0.27250000  0.43570000  1
  C  C191  1  0.17060000  0.88010000  0.61800000  1
  C  C192  1  0.17300000  0.64280000  0.66040000  1
  C  C193  1  0.17380000  0.98360000  0.20100000  1
  C  C194  1  0.17940000  0.06830000  0.92370000  1
  C  C195  1  0.18000000  0.18030000  0.07980000  1
  C  C196  1  0.18030000  0.18000000  0.92020000  1
  C  C197  1  0.18590000  0.42940000  0.46010000  1
  C  C198  1  0.20610000  0.41180000  0.54530000  1
  C  C199  1  0.21680000  0.24720000  0.94260000  1
  C  C200  1  0.21850000  0.02730000  0.95010000  1
  C  C201  1  0.22750000  0.66680000  0.68570000  1
  C  C202  1  0.24720000  0.21680000  0.05740000  1
  C  C203  1  0.24740000  0.59680000  0.27950000  1
  C  C204  1  0.25260000  0.09680000  0.97050000  1
  C  C205  1  0.25280000  0.71680000  0.19260000  1
  C  C206  1  0.27250000  0.16680000  0.56430000  1
  C  C207  1  0.28150000  0.52730000  0.29990000  1
  C  C208  1  0.28320000  0.74720000  0.30740000  1
  C  C209  1  0.29390000  0.91180000  0.70470000  1
  C  C210  1  0.31410000  0.92940000  0.78990000  1
  C  C211  1  0.31970000  0.68000000  0.32980000  1
  C  C212  1  0.32000000  0.68030000  0.17020000  1
  C  C213  1  0.32060000  0.56830000  0.32630000  1
  C  C214  1  0.32620000  0.48360000  0.04900000  1
  C  C215  1  0.32700000  0.14280000  0.58960000  1
  C  C216  1  0.32940000  0.38010000  0.63200000  1
  C  C217  1  0.33320000  0.77250000  0.81430000  1
  C  C218  1  0.33590000  0.99310000  0.81400000  1
  C  C219  1  0.33840000  0.91250000  0.13740000  1
  C  C220  1  0.34330000  0.97510000  0.68430000  1
  C  C221  1  0.35070000  0.04720000  0.47280000  1
  C  C222  1  0.35470000  0.49460000  0.34990000  1
  C  C223  1  0.35720000  0.82700000  0.83960000  1
  C  C224  1  0.36040000  0.94010000  0.83950000  1
  C  C225  1  0.36690000  0.53650000  0.07280000  1
  C  C226  1  0.38010000  0.32940000  0.36800000  1
  C  C227  1  0.39080000  0.00440000  0.86520000  1
  C  C228  1  0.40320000  0.75260000  0.22050000  1
  C  C229  1  0.41180000  0.20610000  0.45470000  1
  C  C230  1  0.41190000  0.98690000  0.45250000  1
  C  C231  1  0.41250000  0.16160000  0.88740000  1
  C  C232  1  0.41330000  0.49040000  0.96240000  1
  C  C233  1  0.42930000  0.47620000  0.39410000  1
  C  C234  1  0.42940000  0.18590000  0.53990000  1
  C  C235  1  0.43170000  0.67940000  0.17370000  1
  C  C236  1  0.44010000  0.13960000  0.58950000  1
  C  C237  1  0.45280000  0.85070000  0.72280000  1
  C  C238  1  0.45420000  0.97310000  0.68280000  1
  C  C239  1  0.45980000  0.53720000  0.56110000  1
  C  C240  1  0.46280000  0.54020000  0.93890000  1
  C  C241  1  0.46350000  0.63310000  0.42720000  1
  C  C242  1  0.46880000  0.01160000  0.90880000  1
  C  C243  1  0.47270000  0.71850000  0.20010000  1
  C  C244  1  0.47310000  0.04580000  0.43280000  1
  C  C245  1  0.47510000  0.15670000  0.43430000  1
  C  C246  1  0.47560000  0.52220000  0.07950000  1
  C  C247  1  0.47620000  0.42930000  0.60590000  1
  C  C248  1  0.47780000  0.52440000  0.42050000  1
  C  C249  1  0.48360000  0.32620000  0.95100000  1
  C  C250  1  0.48690000  0.08810000  0.20250000  1
  C  C251  1  0.48840000  0.96880000  0.15880000  1
  C  C252  1  0.49040000  0.41330000  0.03760000  1
  C  C253  1  0.49310000  0.16410000  0.56400000  1
  C  C254  1  0.49460000  0.35470000  0.65010000  1
  C  C255  1  0.49560000  0.89080000  0.11520000  1
  C  C256  1  0.50440000  0.10920000  0.61520000  1
  C  C257  1  0.50540000  0.64530000  0.15010000  1
  C  C258  1  0.50690000  0.83590000  0.06400000  1
  C  C259  1  0.50960000  0.58670000  0.53760000  1
  C  C260  1  0.51160000  0.03120000  0.65880000  1
  C  C261  1  0.51310000  0.91190000  0.70250000  1
  C  C262  1  0.51640000  0.67380000  0.45100000  1
  C  C263  1  0.52220000  0.47560000  0.92050000  1
  C  C264  1  0.52380000  0.57070000  0.10590000  1
  C  C265  1  0.52440000  0.47780000  0.57950000  1
  C  C266  1  0.52490000  0.84330000  0.93430000  1
  C  C267  1  0.52690000  0.95420000  0.93280000  1
  C  C268  1  0.52730000  0.28150000  0.70010000  1
  C  C269  1  0.53120000  0.98840000  0.40880000  1
  C  C270  1  0.53650000  0.36690000  0.92720000  1
  C  C271  1  0.53720000  0.45980000  0.43890000  1
  C  C272  1  0.54020000  0.46280000  0.06110000  1
  C  C273  1  0.54580000  0.02690000  0.18280000  1
  C  C274  1  0.54720000  0.14930000  0.22280000  1
  C  C275  1  0.55990000  0.86040000  0.08950000  1
  C  C276  1  0.56830000  0.32060000  0.67370000  1
  C  C277  1  0.57060000  0.81410000  0.03990000  1
  C  C278  1  0.57070000  0.52380000  0.89410000  1
  C  C279  1  0.58670000  0.50960000  0.46240000  1
  C  C280  1  0.58750000  0.83840000  0.38740000  1
  C  C281  1  0.58810000  0.01310000  0.95250000  1
  C  C282  1  0.58820000  0.79390000  0.95470000  1
  C  C283  1  0.59680000  0.24740000  0.72050000  1
  C  C284  1  0.60920000  0.99560000  0.36520000  1
  C  C285  1  0.61990000  0.67060000  0.86800000  1
  C  C286  1  0.63310000  0.46350000  0.57280000  1
  C  C287  1  0.63960000  0.05990000  0.33950000  1
  C  C288  1  0.64280000  0.17300000  0.33960000  1
  C  C289  1  0.64530000  0.50540000  0.84990000  1
  C  C290  1  0.64930000  0.95280000  0.97280000  1
  C  C291  1  0.65670000  0.02490000  0.18430000  1
  C  C292  1  0.66160000  0.08750000  0.63740000  1
  C  C293  1  0.66410000  0.00690000  0.31400000  1
  C  C294  1  0.66680000  0.22750000  0.31430000  1
  C  C295  1  0.67060000  0.61990000  0.13200000  1
  C  C296  1  0.67300000  0.85720000  0.08960000  1
  C  C297  1  0.67380000  0.51640000  0.54900000  1
  C  C298  1  0.67940000  0.43170000  0.82630000  1
  C  C299  1  0.68000000  0.31970000  0.67020000  1
  C  C300  1  0.68030000  0.32000000  0.82980000  1
  C  C301  1  0.68590000  0.07060000  0.28990000  1
  C  C302  1  0.70610000  0.08820000  0.20470000  1
  C  C303  1  0.71680000  0.25280000  0.80740000  1
  C  C304  1  0.71850000  0.47270000  0.79990000  1
  C  C305  1  0.72750000  0.83320000  0.06430000  1
  C  C306  1  0.74720000  0.28320000  0.69260000  1
  C  C307  1  0.74740000  0.90320000  0.47050000  1
  C  C308  1  0.75260000  0.40320000  0.77950000  1
  C  C309  1  0.75280000  0.78320000  0.55740000  1
  C  C310  1  0.77250000  0.33320000  0.18570000  1
  C  C311  1  0.78150000  0.97270000  0.45010000  1
  C  C312  1  0.78320000  0.75280000  0.44260000  1
  C  C313  1  0.79390000  0.58820000  0.04530000  1
  C  C314  1  0.81410000  0.57060000  0.96010000  1
  C  C315  1  0.81970000  0.82000000  0.42020000  1
  C  C316  1  0.82000000  0.81970000  0.57980000  1
  C  C317  1  0.82060000  0.93170000  0.42370000  1
  C  C318  1  0.82620000  0.01640000  0.70100000  1
  C  C319  1  0.82700000  0.35720000  0.16040000  1
  C  C320  1  0.82940000  0.11990000  0.11800000  1
  C  C321  1  0.83320000  0.72750000  0.93570000  1
  C  C322  1  0.83590000  0.50690000  0.93600000  1
  C  C323  1  0.83840000  0.58750000  0.61260000  1
  C  C324  1  0.84330000  0.52490000  0.06570000  1
  C  C325  1  0.85070000  0.45280000  0.27720000  1
  C  C326  1  0.85470000  0.00540000  0.40010000  1
  C  C327  1  0.85720000  0.67300000  0.91040000  1
  C  C328  1  0.86040000  0.55990000  0.91050000  1
  C  C329  1  0.86690000  0.96350000  0.67720000  1
  C  C330  1  0.88010000  0.17060000  0.38200000  1
  C  C331  1  0.89080000  0.49560000  0.88480000  1
  C  C332  1  0.90320000  0.74740000  0.52950000  1
  C  C333  1  0.91180000  0.29390000  0.29530000  1
  C  C334  1  0.91190000  0.51310000  0.29750000  1
  C  C335  1  0.91250000  0.33840000  0.86260000  1
  C  C336  1  0.91330000  0.00960000  0.78760000  1
  C  C337  1  0.92930000  0.02380000  0.35590000  1
  C  C338  1  0.92940000  0.31410000  0.21010000  1
  C  C339  1  0.93170000  0.82060000  0.57630000  1
  C  C340  1  0.94010000  0.36040000  0.16050000  1
  C  C341  1  0.95280000  0.64930000  0.02720000  1
  C  C342  1  0.95420000  0.52690000  0.06720000  1
  C  C343  1  0.95980000  0.96280000  0.18890000  1
  C  C344  1  0.96280000  0.95980000  0.81110000  1
  C  C345  1  0.96350000  0.86690000  0.32280000  1
  C  C346  1  0.96880000  0.48840000  0.84120000  1
  C  C347  1  0.97270000  0.78150000  0.54990000  1
  C  C348  1  0.97310000  0.45420000  0.31720000  1
  C  C349  1  0.97510000  0.34330000  0.31570000  1
  C  C350  1  0.97560000  0.97780000  0.67050000  1
  C  C351  1  0.97620000  0.07070000  0.14410000  1
  C  C352  1  0.97780000  0.97560000  0.32950000  1
  C  C353  1  0.98360000  0.17380000  0.79900000  1
  C  C354  1  0.98690000  0.41190000  0.54750000  1
  C  C355  1  0.98840000  0.53120000  0.59120000  1
  C  C356  1  0.99040000  0.08670000  0.71240000  1
  C  C357  1  0.99310000  0.33590000  0.18600000  1
  C  C358  1  0.99460000  0.14530000  0.09990000  1
  C  C359  1  0.99560000  0.60920000  0.63480000  1
  N  N360  1  0.03980000  0.61960000  0.34000000  1
  N  N361  1  0.04490000  0.10490000  0.12341000  1
  N  N362  1  0.05160000  0.56560000  0.61256000  1
  N  N363  1  0.06560000  0.44840000  0.36256000  1
  N  N364  1  0.07440000  0.86880000  0.85770000  1
  N  N365  1  0.07900000  0.88540000  0.28180000  1
  N  N366  1  0.10490000  0.04490000  0.87659000  1
  N  N367  1  0.11130000  0.84670000  0.59560000  1
  N  N368  1  0.11200000  0.37790000  0.13590000  1
  N  N369  1  0.11460000  0.92100000  0.21820000  1
  N  N370  1  0.11960000  0.46020000  0.09000000  1
  N  N371  1  0.12210000  0.61200000  0.38590000  1
  N  N372  1  0.13120000  0.92560000  0.64230000  1
  N  N373  1  0.14820000  0.65340000  0.77610000  1
  N  N374  1  0.15330000  0.88870000  0.90440000  1
  N  N375  1  0.15340000  0.35180000  0.52610000  1
  N  N376  1  0.17730000  0.68880000  0.71064000  1
  N  N377  1  0.18880000  0.32270000  0.46064000  1
  N  N378  1  0.20480000  0.25310000  0.03223000  1
  N  N379  1  0.24690000  0.70480000  0.28223000  1
  N  N380  1  0.25310000  0.20480000  0.96777000  1
  N  N381  1  0.29520000  0.75310000  0.21777000  1
  N  N382  1  0.31120000  0.82270000  0.78936000  1
  N  N383  1  0.32270000  0.18880000  0.53936000  1
  N  N384  1  0.34660000  0.85180000  0.72390000  1
  N  N385  1  0.34670000  0.38870000  0.34560000  1
  N  N386  1  0.35180000  0.15340000  0.47390000  1
  N  N387  1  0.36880000  0.42560000  0.60770000  1
  N  N388  1  0.37790000  0.11200000  0.86410000  1
  N  N389  1  0.38040000  0.96020000  0.16000000  1
  N  N390  1  0.38540000  0.42100000  0.03180000  1
  N  N391  1  0.38800000  0.87790000  0.11410000  1
  N  N392  1  0.38870000  0.34670000  0.65440000  1
  N  N393  1  0.39510000  0.54490000  0.37341000  1
  N  N394  1  0.42100000  0.38540000  0.96820000  1
  N  N395  1  0.42560000  0.36880000  0.39230000  1
  N  N396  1  0.43440000  0.94840000  0.88744000  1
  N  N397  1  0.44840000  0.06560000  0.63744000  1
  N  N398  1  0.45510000  0.60490000  0.12659000  1
  N  N399  1  0.46020000  0.11960000  0.91000000  1
  N  N400  1  0.53980000  0.88040000  0.41000000  1
  N  N401  1  0.54490000  0.39510000  0.62659000  1
  N  N402  1  0.55160000  0.93440000  0.13744000  1
  N  N403  1  0.56560000  0.05160000  0.38744000  1
  N  N404  1  0.57440000  0.63120000  0.89230000  1
  N  N405  1  0.57900000  0.61460000  0.46820000  1
  N  N406  1  0.60490000  0.45510000  0.87341000  1
  N  N407  1  0.61130000  0.65330000  0.15440000  1
  N  N408  1  0.61200000  0.12210000  0.61410000  1
  N  N409  1  0.61460000  0.57900000  0.53180000  1
  N  N410  1  0.61960000  0.03980000  0.66000000  1
  N  N411  1  0.62210000  0.88800000  0.36410000  1
  N  N412  1  0.63120000  0.57440000  0.10770000  1
  N  N413  1  0.64820000  0.84660000  0.97390000  1
  N  N414  1  0.65330000  0.61130000  0.84560000  1
  N  N415  1  0.65340000  0.14820000  0.22390000  1
  N  N416  1  0.67730000  0.81120000  0.03936000  1
  N  N417  1  0.68880000  0.17730000  0.28936000  1
  N  N418  1  0.70480000  0.24690000  0.71777000  1
  N  N419  1  0.74690000  0.79520000  0.46777000  1
  N  N420  1  0.75310000  0.29520000  0.78223000  1
  N  N421  1  0.79520000  0.74690000  0.53223000  1
  N  N422  1  0.81120000  0.67730000  0.96064000  1
  N  N423  1  0.82270000  0.31120000  0.21064000  1
  N  N424  1  0.84660000  0.64820000  0.02610000  1
  N  N425  1  0.84670000  0.11130000  0.40440000  1
  N  N426  1  0.85180000  0.34660000  0.27610000  1
  N  N427  1  0.86880000  0.07440000  0.14230000  1
  N  N428  1  0.87790000  0.38800000  0.88590000  1
  N  N429  1  0.88040000  0.53980000  0.59000000  1
  N  N430  1  0.88540000  0.07900000  0.71820000  1
  N  N431  1  0.88800000  0.62210000  0.63590000  1
  N  N432  1  0.88870000  0.15330000  0.09560000  1
  N  N433  1  0.89510000  0.95510000  0.37659000  1
  N  N434  1  0.92100000  0.11460000  0.78180000  1
  N  N435  1  0.92560000  0.13120000  0.35770000  1
  N  N436  1  0.93440000  0.55160000  0.86256000  1
  N  N437  1  0.94840000  0.43440000  0.11256000  1
  N  N438  1  0.95510000  0.89510000  0.62341000  1
  N  N439  1  0.96020000  0.38040000  0.84000000  1
