# generated using pymatgen
data_ErH2C7(NO3)2
_symmetry_space_group_name_H-M   'P 1'
_cell_length_a   7.92300000
_cell_length_b   9.59260000
_cell_length_c   15.79380000
_cell_angle_alpha   90.00000000
_cell_angle_beta   90.00000000
_cell_angle_gamma   96.75900000
_symmetry_Int_Tables_number   1
_chemical_formula_structural   ErH2C7(NO3)2
_chemical_formula_sum   'Er4 H8 C28 N8 O24'
_cell_volume   1192.02052442
_cell_formula_units_Z   4
loop_
 _symmetry_equiv_pos_site_id
 _symmetry_equiv_pos_as_xyz
  1  'x, y, z'
loop_
 _atom_site_type_symbol
 _atom_site_label
 _atom_site_symmetry_multiplicity
 _atom_site_fract_x
 _atom_site_fract_y
 _atom_site_fract_z
 _atom_site_occupancy
  Er  Er0  1  0.07183000  0.86722000  0.67260000  1
  Er  Er1  1  0.42817000  0.63278000  0.17260000  1
  Er  Er2  1  0.57183000  0.36722000  0.82740000  1
  Er  Er3  1  0.92817000  0.13278000  0.32740000  1
  H  H4  1  0.03140000  0.31504000  0.61209000  1
  H  H5  1  0.11737000  0.84707000  0.24853000  1
  H  H6  1  0.38263000  0.65293000  0.74853000  1
  H  H7  1  0.46860000  0.18496000  0.11209000  1
  H  H8  1  0.53140000  0.81504000  0.88791000  1
  H  H9  1  0.61737000  0.34707000  0.25147000  1
  H  H10  1  0.88263000  0.15293000  0.75147000  1
  H  H11  1  0.96860000  0.68496000  0.38791000  1
  C  C12  1  0.06010000  0.42200000  0.41930000  1
  C  C13  1  0.08130000  0.52740000  0.63220000  1
  C  C14  1  0.09120000  0.99010000  0.48510000  1
  C  C15  1  0.10010000  0.38580000  0.64090000  1
  C  C16  1  0.19700000  0.91500000  0.22260000  1
  C  C17  1  0.22560000  0.35310000  0.69510000  1
  C  C18  1  0.24940000  0.29630000  0.21740000  1
  C  C19  1  0.25060000  0.20370000  0.71740000  1
  C  C20  1  0.27440000  0.14690000  0.19510000  1
  C  C21  1  0.30300000  0.58500000  0.72260000  1
  C  C22  1  0.39990000  0.11420000  0.14090000  1
  C  C23  1  0.40880000  0.50990000  0.98510000  1
  C  C24  1  0.41870000  0.97260000  0.13220000  1
  C  C25  1  0.43990000  0.07800000  0.91930000  1
  C  C26  1  0.56010000  0.92200000  0.08070000  1
  C  C27  1  0.58130000  0.02740000  0.86780000  1
  C  C28  1  0.59120000  0.49010000  0.01490000  1
  C  C29  1  0.60010000  0.88580000  0.85910000  1
  C  C30  1  0.69700000  0.41500000  0.27740000  1
  C  C31  1  0.72560000  0.85310000  0.80490000  1
  C  C32  1  0.74940000  0.79630000  0.28260000  1
  C  C33  1  0.75060000  0.70370000  0.78260000  1
  C  C34  1  0.77440000  0.64690000  0.30490000  1
  C  C35  1  0.80300000  0.08500000  0.77740000  1
  C  C36  1  0.89990000  0.61420000  0.35910000  1
  C  C37  1  0.90880000  0.00990000  0.51490000  1
  C  C38  1  0.91870000  0.47260000  0.36780000  1
  C  C39  1  0.93990000  0.57800000  0.58070000  1
  N  N40  1  0.16960000  0.04790000  0.23550000  1
  N  N41  1  0.18270000  0.62640000  0.67330000  1
  N  N42  1  0.31730000  0.87360000  0.17330000  1
  N  N43  1  0.33040000  0.45210000  0.73550000  1
  N  N44  1  0.66960000  0.54790000  0.26450000  1
  N  N45  1  0.68270000  0.12640000  0.82670000  1
  N  N46  1  0.81730000  0.37360000  0.32670000  1
  N  N47  1  0.83040000  0.95210000  0.76450000  1
  O  O48  1  0.05270000  0.29010000  0.42950000  1
  O  O49  1  0.12420000  0.31280000  0.26330000  1
  O  O50  1  0.12780000  0.02240000  0.40990000  1
  O  O51  1  0.14490000  0.10880000  0.68960000  1
  O  O52  1  0.17530000  0.51080000  0.44450000  1
  O  O53  1  0.18670000  0.94350000  0.53770000  1
  O  O54  1  0.31330000  0.55650000  0.03770000  1
  O  O55  1  0.32470000  0.98920000  0.94450000  1
  O  O56  1  0.35510000  0.39120000  0.18960000  1
  O  O57  1  0.37220000  0.47760000  0.90990000  1
  O  O58  1  0.37580000  0.18720000  0.76330000  1
  O  O59  1  0.44730000  0.20990000  0.92950000  1
  O  O60  1  0.55270000  0.79010000  0.07050000  1
  O  O61  1  0.62420000  0.81280000  0.23670000  1
  O  O62  1  0.62780000  0.52240000  0.09010000  1
  O  O63  1  0.64490000  0.60880000  0.81040000  1
  O  O64  1  0.67530000  0.01080000  0.05550000  1
  O  O65  1  0.68670000  0.44350000  0.96230000  1
  O  O66  1  0.81330000  0.05650000  0.46230000  1
  O  O67  1  0.82470000  0.48920000  0.55550000  1
  O  O68  1  0.85510000  0.89120000  0.31040000  1
  O  O69  1  0.87220000  0.97760000  0.59010000  1
  O  O70  1  0.87580000  0.68720000  0.73670000  1
  O  O71  1  0.94730000  0.70990000  0.57050000  1
