# generated using pymatgen
data_CoH5C10NO4
_symmetry_space_group_name_H-M   'P 1'
_cell_length_a   10.25370000
_cell_length_b   10.93200000
_cell_length_c   13.33830000
_cell_angle_alpha   90.00000000
_cell_angle_beta   90.00000000
_cell_angle_gamma   113.14900000
_symmetry_Int_Tables_number   1
_chemical_formula_structural   CoH5C10NO4
_chemical_formula_sum   'Co4 H20 C40 N4 O16'
_cell_volume   1374.75610601
_cell_formula_units_Z   4
loop_
 _symmetry_equiv_pos_site_id
 _symmetry_equiv_pos_as_xyz
  1  'x, y, z'
loop_
 _atom_site_type_symbol
 _atom_site_label
 _atom_site_symmetry_multiplicity
 _atom_site_fract_x
 _atom_site_fract_y
 _atom_site_fract_z
 _atom_site_occupancy
  Co  Co0  1  0.21135000  0.98777000  0.66323000  1
  Co  Co1  1  0.28865000  0.51223000  0.16323000  1
  Co  Co2  1  0.71135000  0.48777000  0.83677000  1
  Co  Co3  1  0.78865000  0.01223000  0.33677000  1
  H  H4  1  0.00840000  0.68440000  0.88070000  1
  H  H5  1  0.12930000  0.89130000  0.94310000  1
  H  H6  1  0.14920000  0.20450000  0.55370000  1
  H  H7  1  0.15520000  0.68460000  0.41760000  1
  H  H8  1  0.23900000  0.08320000  0.99750000  1
  H  H9  1  0.26100000  0.41680000  0.49750000  1
  H  H10  1  0.34480000  0.81540000  0.91760000  1
  H  H11  1  0.35080000  0.29550000  0.05370000  1
  H  H12  1  0.37070000  0.60870000  0.44310000  1
  H  H13  1  0.49160000  0.81560000  0.38070000  1
  H  H14  1  0.50840000  0.18440000  0.61930000  1
  H  H15  1  0.62930000  0.39130000  0.55690000  1
  H  H16  1  0.64920000  0.70450000  0.94630000  1
  H  H17  1  0.65520000  0.18460000  0.08240000  1
  H  H18  1  0.73900000  0.58320000  0.50250000  1
  H  H19  1  0.76100000  0.91680000  0.00250000  1
  H  H20  1  0.84480000  0.31540000  0.58240000  1
  H  H21  1  0.85080000  0.79550000  0.44630000  1
  H  H22  1  0.87070000  0.10870000  0.05690000  1
  H  H23  1  0.99160000  0.31560000  0.11930000  1
  C  C24  1  0.03070000  0.85640000  0.94350000  1
  C  C25  1  0.03860000  0.06840000  0.01910000  1
  C  C26  1  0.04280000  0.26900000  0.09340000  1
  C  C27  1  0.04760000  0.62430000  0.54669000  1
  C  C28  1  0.04780000  0.48800000  0.40323000  1
  C  C29  1  0.09260000  0.60970000  0.45085000  1
  C  C30  1  0.10550000  0.75870000  0.59570000  1
  C  C31  1  0.11760000  0.48110000  0.30430000  1
  C  C32  1  0.18550000  0.12910000  0.02060000  1
  C  C33  1  0.24780000  0.24340000  0.55620000  1
  C  C34  1  0.25220000  0.25660000  0.05620000  1
  C  C35  1  0.31450000  0.37090000  0.52060000  1
  C  C36  1  0.38240000  0.01890000  0.80430000  1
  C  C37  1  0.39450000  0.74130000  0.09570000  1
  C  C38  1  0.40740000  0.89030000  0.95085000  1
  C  C39  1  0.45220000  0.01200000  0.90323000  1
  C  C40  1  0.45240000  0.87570000  0.04669000  1
  C  C41  1  0.45720000  0.23100000  0.59340000  1
  C  C42  1  0.46140000  0.43160000  0.51910000  1
  C  C43  1  0.46930000  0.64360000  0.44350000  1
  C  C44  1  0.53070000  0.35640000  0.55650000  1
  C  C45  1  0.53860000  0.56840000  0.48090000  1
  C  C46  1  0.54280000  0.76900000  0.40660000  1
  C  C47  1  0.54760000  0.12430000  0.95331000  1
  C  C48  1  0.54780000  0.98800000  0.09677000  1
  C  C49  1  0.59260000  0.10970000  0.04915000  1
  C  C50  1  0.60550000  0.25870000  0.90430000  1
  C  C51  1  0.61760000  0.98110000  0.19570000  1
  C  C52  1  0.68550000  0.62910000  0.47940000  1
  C  C53  1  0.74780000  0.74340000  0.94380000  1
  C  C54  1  0.75220000  0.75660000  0.44380000  1
  C  C55  1  0.81450000  0.87090000  0.97940000  1
  C  C56  1  0.88240000  0.51890000  0.69570000  1
  C  C57  1  0.89450000  0.24130000  0.40430000  1
  C  C58  1  0.90740000  0.39030000  0.54915000  1
  C  C59  1  0.95220000  0.51200000  0.59677000  1
  C  C60  1  0.95240000  0.37570000  0.45331000  1
  C  C61  1  0.95720000  0.73100000  0.90660000  1
  C  C62  1  0.96140000  0.93160000  0.98090000  1
  C  C63  1  0.96930000  0.14360000  0.05650000  1
  N  N64  1  0.18420000  0.32800000  0.09397000  1
  N  N65  1  0.31580000  0.17200000  0.59397000  1
  N  N66  1  0.68420000  0.82800000  0.40603000  1
  N  N67  1  0.81580000  0.67200000  0.90603000  1
  O  O68  1  0.09651000  0.53491000  0.22746000  1
  O  O69  1  0.10197000  0.76837000  0.68903000  1
  O  O70  1  0.15905000  0.86025000  0.54160000  1
  O  O71  1  0.20929000  0.43199000  0.30630000  1
  O  O72  1  0.29071000  0.06801000  0.80630000  1
  O  O73  1  0.34095000  0.63975000  0.04160000  1
  O  O74  1  0.39803000  0.73163000  0.18903000  1
  O  O75  1  0.40349000  0.96509000  0.72746000  1
  O  O76  1  0.59651000  0.03491000  0.27254000  1
  O  O77  1  0.60197000  0.26837000  0.81097000  1
  O  O78  1  0.65905000  0.36025000  0.95840000  1
  O  O79  1  0.70929000  0.93199000  0.19370000  1
  O  O80  1  0.79071000  0.56801000  0.69370000  1
  O  O81  1  0.84095000  0.13975000  0.45840000  1
  O  O82  1  0.89803000  0.23163000  0.31097000  1
  O  O83  1  0.90349000  0.46509000  0.77254000  1
