# generated using pymatgen
data_Gd2Mn3H18C42(NO4)6
_symmetry_space_group_name_H-M   'P 1'
_cell_length_a   15.30700000
_cell_length_b   15.30700000
_cell_length_c   15.69500000
_cell_angle_alpha   90.00000000
_cell_angle_beta   90.00000000
_cell_angle_gamma   120.00000000
_symmetry_Int_Tables_number   1
_chemical_formula_structural   Gd2Mn3H18C42(NO4)6
_chemical_formula_sum   'Gd4 Mn6 H36 C84 N12 O48'
_cell_volume   3184.72631286
_cell_formula_units_Z   2
loop_
 _symmetry_equiv_pos_site_id
 _symmetry_equiv_pos_as_xyz
  1  'x, y, z'
loop_
 _atom_site_type_symbol
 _atom_site_label
 _atom_site_symmetry_multiplicity
 _atom_site_fract_x
 _atom_site_fract_y
 _atom_site_fract_z
 _atom_site_occupancy
  Gd  Gd0  1  0.66666667  0.33333333  0.75000000  1
  Gd  Gd1  1  0.66666667  0.33333333  0.25000000  1
  Gd  Gd2  1  0.33333333  0.66666667  0.75000000  1
  Gd  Gd3  1  0.33333333  0.66666667  0.25000000  1
  Mn  Mn4  1  1.00000000  0.50000000  0.00000000  1
  Mn  Mn5  1  1.00000000  0.50000000  0.50000000  1
  Mn  Mn6  1  0.50000000  0.50000000  0.00000000  1
  Mn  Mn7  1  0.50000000  0.50000000  0.50000000  1
  Mn  Mn8  1  0.50000000  0.00000000  0.00000000  1
  Mn  Mn9  1  0.50000000  0.00000000  0.50000000  1
  H  H10  1  0.94510000  0.23450000  0.65720000  1
  H  H11  1  0.94510000  0.23450000  0.34280000  1
  H  H12  1  0.94510000  0.71060000  0.84280000  1
  H  H13  1  0.94510000  0.71060000  0.15720000  1
  H  H14  1  0.89950000  0.10050000  0.75000000  1
  H  H15  1  0.89950000  0.10050000  0.25000000  1
  H  H16  1  0.89950000  0.79900000  0.75000000  1
  H  H17  1  0.89950000  0.79900000  0.25000000  1
  H  H18  1  0.79900000  0.89950000  0.75000000  1
  H  H19  1  0.79900000  0.89950000  0.25000000  1
  H  H20  1  0.76550000  0.05490000  0.84280000  1
  H  H21  1  0.76550000  0.05490000  0.15720000  1
  H  H22  1  0.76550000  0.71060000  0.65720000  1
  H  H23  1  0.76550000  0.71060000  0.34280000  1
  H  H24  1  0.71060000  0.76550000  0.84280000  1
  H  H25  1  0.71060000  0.76550000  0.15720000  1
  H  H26  1  0.71060000  0.94510000  0.65720000  1
  H  H27  1  0.71060000  0.94510000  0.34280000  1
  H  H28  1  0.28940000  0.05490000  0.65720000  1
  H  H29  1  0.28940000  0.05490000  0.34280000  1
  H  H30  1  0.28940000  0.23450000  0.84280000  1
  H  H31  1  0.28940000  0.23450000  0.15720000  1
  H  H32  1  0.23450000  0.28940000  0.65720000  1
  H  H33  1  0.23450000  0.28940000  0.34280000  1
  H  H34  1  0.23450000  0.94510000  0.84280000  1
  H  H35  1  0.23450000  0.94510000  0.15720000  1
  H  H36  1  0.20100000  0.10050000  0.75000000  1
  H  H37  1  0.20100000  0.10050000  0.25000000  1
  H  H38  1  0.10050000  0.20100000  0.75000000  1
  H  H39  1  0.10050000  0.20100000  0.25000000  1
  H  H40  1  0.10050000  0.89950000  0.75000000  1
  H  H41  1  0.10050000  0.89950000  0.25000000  1
  H  H42  1  0.05490000  0.28940000  0.84280000  1
  H  H43  1  0.05490000  0.28940000  0.15720000  1
  H  H44  1  0.05490000  0.76550000  0.65720000  1
  H  H45  1  0.05490000  0.76550000  0.34280000  1
  C  C46  1  0.89160000  0.21510000  0.69490000  1
  C  C47  1  0.89160000  0.21510000  0.30510000  1
  C  C48  1  0.89160000  0.67650000  0.80510000  1
  C  C49  1  0.89160000  0.67650000  0.19490000  1
  C  C50  1  0.86445000  0.13555000  0.75000000  1
  C  C51  1  0.86445000  0.13555000  0.25000000  1
  C  C52  1  0.86445000  0.72890000  0.75000000  1
  C  C53  1  0.86445000  0.72890000  0.25000000  1
  C  C54  1  0.86000000  0.35250000  0.64040000  1
  C  C55  1  0.86000000  0.35250000  0.35960000  1
  C  C56  1  0.86000000  0.50750000  0.85960000  1
  C  C57  1  0.86000000  0.50750000  0.14040000  1
  C  C58  1  0.83830000  0.26520000  0.69660000  1
  C  C59  1  0.83830000  0.26520000  0.30340000  1
  C  C60  1  0.83830000  0.57310000  0.80340000  1
  C  C61  1  0.83830000  0.57310000  0.19660000  1
  C  C62  1  0.78490000  0.10840000  0.80510000  1
  C  C63  1  0.78490000  0.10840000  0.19490000  1
  C  C64  1  0.78490000  0.67650000  0.69490000  1
  C  C65  1  0.78490000  0.67650000  0.30510000  1
  C  C66  1  0.73480000  0.16170000  0.80340000  1
  C  C67  1  0.73480000  0.16170000  0.19660000  1
  C  C68  1  0.73480000  0.57310000  0.69660000  1
  C  C69  1  0.73480000  0.57310000  0.30340000  1
  C  C70  1  0.72890000  0.86445000  0.75000000  1
  C  C71  1  0.72890000  0.86445000  0.25000000  1
  C  C72  1  0.67650000  0.78490000  0.80510000  1
  C  C73  1  0.67650000  0.78490000  0.19490000  1
  C  C74  1  0.67650000  0.89160000  0.69490000  1
  C  C75  1  0.67650000  0.89160000  0.30510000  1
  C  C76  1  0.64750000  0.14000000  0.85960000  1
  C  C77  1  0.64750000  0.14000000  0.14040000  1
  C  C78  1  0.64750000  0.50750000  0.64040000  1
  C  C79  1  0.64750000  0.50750000  0.35960000  1
  C  C80  1  0.57310000  0.73480000  0.80340000  1
  C  C81  1  0.57310000  0.73480000  0.19660000  1
  C  C82  1  0.57310000  0.83830000  0.69660000  1
  C  C83  1  0.57310000  0.83830000  0.30340000  1
  C  C84  1  0.50750000  0.64750000  0.85960000  1
  C  C85  1  0.50750000  0.64750000  0.14040000  1
  C  C86  1  0.50750000  0.86000000  0.64040000  1
  C  C87  1  0.50750000  0.86000000  0.35960000  1
  C  C88  1  0.49250000  0.14000000  0.64040000  1
  C  C89  1  0.49250000  0.14000000  0.35960000  1
  C  C90  1  0.49250000  0.35250000  0.85960000  1
  C  C91  1  0.49250000  0.35250000  0.14040000  1
  C  C92  1  0.42690000  0.16170000  0.69660000  1
  C  C93  1  0.42690000  0.16170000  0.30340000  1
  C  C94  1  0.42690000  0.26520000  0.80340000  1
  C  C95  1  0.42690000  0.26520000  0.19660000  1
  C  C96  1  0.35250000  0.49250000  0.64040000  1
  C  C97  1  0.35250000  0.49250000  0.35960000  1
  C  C98  1  0.35250000  0.86000000  0.85960000  1
  C  C99  1  0.35250000  0.86000000  0.14040000  1
  C  C100  1  0.32350000  0.10840000  0.69490000  1
  C  C101  1  0.32350000  0.10840000  0.30510000  1
  C  C102  1  0.32350000  0.21510000  0.80510000  1
  C  C103  1  0.32350000  0.21510000  0.19490000  1
  C  C104  1  0.27110000  0.13555000  0.75000000  1
  C  C105  1  0.27110000  0.13555000  0.25000000  1
  C  C106  1  0.26520000  0.42690000  0.69660000  1
  C  C107  1  0.26520000  0.42690000  0.30340000  1
  C  C108  1  0.26520000  0.83830000  0.80340000  1
  C  C109  1  0.26520000  0.83830000  0.19660000  1
  C  C110  1  0.21510000  0.32350000  0.69490000  1
  C  C111  1  0.21510000  0.32350000  0.30510000  1
  C  C112  1  0.21510000  0.89160000  0.80510000  1
  C  C113  1  0.21510000  0.89160000  0.19490000  1
  C  C114  1  0.16170000  0.42690000  0.80340000  1
  C  C115  1  0.16170000  0.42690000  0.19660000  1
  C  C116  1  0.16170000  0.73480000  0.69660000  1
  C  C117  1  0.16170000  0.73480000  0.30340000  1
  C  C118  1  0.14000000  0.49250000  0.85960000  1
  C  C119  1  0.14000000  0.49250000  0.14040000  1
  C  C120  1  0.14000000  0.64750000  0.64040000  1
  C  C121  1  0.14000000  0.64750000  0.35960000  1
  C  C122  1  0.13555000  0.27110000  0.75000000  1
  C  C123  1  0.13555000  0.27110000  0.25000000  1
  C  C124  1  0.13555000  0.86445000  0.75000000  1
  C  C125  1  0.13555000  0.86445000  0.25000000  1
  C  C126  1  0.10840000  0.32350000  0.80510000  1
  C  C127  1  0.10840000  0.32350000  0.19490000  1
  C  C128  1  0.10840000  0.78490000  0.69490000  1
  C  C129  1  0.10840000  0.78490000  0.30510000  1
  N  N130  1  0.76063000  0.23937000  0.75000000  1
  N  N131  1  0.76063000  0.23937000  0.25000000  1
  N  N132  1  0.76063000  0.52126000  0.75000000  1
  N  N133  1  0.76063000  0.52126000  0.25000000  1
  N  N134  1  0.52126000  0.76063000  0.75000000  1
  N  N135  1  0.52126000  0.76063000  0.25000000  1
  N  N136  1  0.47874000  0.23937000  0.75000000  1
  N  N137  1  0.47874000  0.23937000  0.25000000  1
  N  N138  1  0.23937000  0.47874000  0.75000000  1
  N  N139  1  0.23937000  0.47874000  0.25000000  1
  N  N140  1  0.23937000  0.76063000  0.75000000  1
  N  N141  1  0.23937000  0.76063000  0.25000000  1
  O  O142  1  0.93544000  0.38410000  0.59343000  1
  O  O143  1  0.93544000  0.38410000  0.40657000  1
  O  O144  1  0.93544000  0.55134000  0.90657000  1
  O  O145  1  0.93544000  0.55134000  0.09343000  1
  O  O146  1  0.80082000  0.38675000  0.64419000  1
  O  O147  1  0.80082000  0.38675000  0.35581000  1
  O  O148  1  0.80082000  0.41407000  0.85581000  1
  O  O149  1  0.80082000  0.41407000  0.14419000  1
  O  O150  1  0.61590000  0.06456000  0.90657000  1
  O  O151  1  0.61590000  0.06456000  0.09343000  1
  O  O152  1  0.61590000  0.55134000  0.59343000  1
  O  O153  1  0.61590000  0.55134000  0.40657000  1
  O  O154  1  0.61325000  0.19918000  0.85581000  1
  O  O155  1  0.61325000  0.19918000  0.14419000  1
  O  O156  1  0.61325000  0.41407000  0.64419000  1
  O  O157  1  0.61325000  0.41407000  0.35581000  1
  O  O158  1  0.58593000  0.19918000  0.64419000  1
  O  O159  1  0.58593000  0.19918000  0.35581000  1
  O  O160  1  0.58593000  0.38675000  0.85581000  1
  O  O161  1  0.58593000  0.38675000  0.14419000  1
  O  O162  1  0.55134000  0.61590000  0.90657000  1
  O  O163  1  0.55134000  0.61590000  0.09343000  1
  O  O164  1  0.55134000  0.93544000  0.59343000  1
  O  O165  1  0.55134000  0.93544000  0.40657000  1
  O  O166  1  0.44866000  0.06456000  0.59343000  1
  O  O167  1  0.44866000  0.06456000  0.40657000  1
  O  O168  1  0.44866000  0.38410000  0.90657000  1
  O  O169  1  0.44866000  0.38410000  0.09343000  1
  O  O170  1  0.41407000  0.61325000  0.85581000  1
  O  O171  1  0.41407000  0.61325000  0.14419000  1
  O  O172  1  0.41407000  0.80082000  0.64419000  1
  O  O173  1  0.41407000  0.80082000  0.35581000  1
  O  O174  1  0.38675000  0.58593000  0.64419000  1
  O  O175  1  0.38675000  0.58593000  0.35581000  1
  O  O176  1  0.38675000  0.80082000  0.85581000  1
  O  O177  1  0.38675000  0.80082000  0.14419000  1
  O  O178  1  0.38410000  0.44866000  0.59343000  1
  O  O179  1  0.38410000  0.44866000  0.40657000  1
  O  O180  1  0.38410000  0.93544000  0.90657000  1
  O  O181  1  0.38410000  0.93544000  0.09343000  1
  O  O182  1  0.19918000  0.58593000  0.85581000  1
  O  O183  1  0.19918000  0.58593000  0.14419000  1
  O  O184  1  0.19918000  0.61325000  0.64419000  1
  O  O185  1  0.19918000  0.61325000  0.35581000  1
  O  O186  1  0.06456000  0.44866000  0.90657000  1
  O  O187  1  0.06456000  0.44866000  0.09343000  1
  O  O188  1  0.06456000  0.61590000  0.59343000  1
  O  O189  1  0.06456000  0.61590000  0.40657000  1
