# generated using pymatgen
data_Zn2H11C22NO8
_symmetry_space_group_name_H-M   'P 1'
_cell_length_a   18.46800000
_cell_length_b   18.46800000
_cell_length_c   24.16000000
_cell_angle_alpha   90.00000000
_cell_angle_beta   90.00000000
_cell_angle_gamma   120.00000000
_symmetry_Int_Tables_number   1
_chemical_formula_structural   Zn2H11C22NO8
_chemical_formula_sum   'Zn12 H66 C132 N6 O48'
_cell_volume   7136.20460540
_cell_formula_units_Z   6
loop_
 _symmetry_equiv_pos_site_id
 _symmetry_equiv_pos_as_xyz
  1  'x, y, z'
loop_
 _atom_site_type_symbol
 _atom_site_label
 _atom_site_symmetry_multiplicity
 _atom_site_fract_x
 _atom_site_fract_y
 _atom_site_fract_z
 _atom_site_occupancy
  Zn  Zn0  1  0.94585000  0.47292000  0.94989000  1
  Zn  Zn1  1  0.94585000  0.47292000  0.55011000  1
  Zn  Zn2  1  0.52707000  0.05414000  0.94989000  1
  Zn  Zn3  1  0.52707000  0.05414000  0.55011000  1
  Zn  Zn4  1  0.52707000  0.47292000  0.94989000  1
  Zn  Zn5  1  0.52707000  0.47292000  0.55011000  1
  Zn  Zn6  1  0.47293000  0.52708000  0.44989000  1
  Zn  Zn7  1  0.47293000  0.52708000  0.05011000  1
  Zn  Zn8  1  0.47293000  0.94586000  0.44989000  1
  Zn  Zn9  1  0.47293000  0.94586000  0.05011000  1
  Zn  Zn10  1  0.05415000  0.52708000  0.44989000  1
  Zn  Zn11  1  0.05415000  0.52708000  0.05011000  1
  H  H12  1  0.93870000  0.06130000  0.25000000  1
  H  H13  1  0.93870000  0.87740000  0.25000000  1
  H  H14  1  0.92570000  0.28960000  0.36220000  1
  H  H15  1  0.92570000  0.28960000  0.13780000  1
  H  H16  1  0.92570000  0.63610000  0.36220000  1
  H  H17  1  0.92570000  0.63610000  0.13780000  1
  H  H18  1  0.90225000  0.09775000  0.33260000  1
  H  H19  1  0.90225000  0.09775000  0.16740000  1
  H  H20  1  0.90225000  0.80450000  0.33260000  1
  H  H21  1  0.90225000  0.80450000  0.16740000  1
  H  H22  1  0.87740000  0.93870000  0.75000000  1
  H  H23  1  0.80450000  0.90225000  0.83260000  1
  H  H24  1  0.80450000  0.90225000  0.66740000  1
  H  H25  1  0.76830000  0.23170000  0.28080000  1
  H  H26  1  0.76830000  0.23170000  0.21920000  1
  H  H27  1  0.76830000  0.53660000  0.28080000  1
  H  H28  1  0.76830000  0.53660000  0.21920000  1
  H  H29  1  0.76375000  0.23625000  0.48740000  1
  H  H30  1  0.76375000  0.23625000  0.01260000  1
  H  H31  1  0.76375000  0.52750000  0.48740000  1
  H  H32  1  0.76375000  0.52750000  0.01260000  1
  H  H33  1  0.71040000  0.07430000  0.36220000  1
  H  H34  1  0.71040000  0.07430000  0.13780000  1
  H  H35  1  0.71040000  0.63610000  0.36220000  1
  H  H36  1  0.71040000  0.63610000  0.13780000  1
  H  H37  1  0.63610000  0.71040000  0.86220000  1
  H  H38  1  0.63610000  0.71040000  0.63780000  1
  H  H39  1  0.63610000  0.92570000  0.86220000  1
  H  H40  1  0.63610000  0.92570000  0.63780000  1
  H  H41  1  0.53660000  0.76830000  0.78080000  1
  H  H42  1  0.53660000  0.76830000  0.71920000  1
  H  H43  1  0.52750000  0.76375000  0.98740000  1
  H  H44  1  0.52750000  0.76375000  0.51260000  1
  H  H45  1  0.47250000  0.23625000  0.48740000  1
  H  H46  1  0.47250000  0.23625000  0.01260000  1
  H  H47  1  0.46340000  0.23170000  0.28080000  1
  H  H48  1  0.46340000  0.23170000  0.21920000  1
  H  H49  1  0.36390000  0.07430000  0.36220000  1
  H  H50  1  0.36390000  0.07430000  0.13780000  1
  H  H51  1  0.36390000  0.28960000  0.36220000  1
  H  H52  1  0.36390000  0.28960000  0.13780000  1
  H  H53  1  0.28960000  0.36390000  0.86220000  1
  H  H54  1  0.28960000  0.36390000  0.63780000  1
  H  H55  1  0.28960000  0.92570000  0.86220000  1
  H  H56  1  0.28960000  0.92570000  0.63780000  1
  H  H57  1  0.23625000  0.47250000  0.98740000  1
  H  H58  1  0.23625000  0.47250000  0.51260000  1
  H  H59  1  0.23625000  0.76375000  0.98740000  1
  H  H60  1  0.23625000  0.76375000  0.51260000  1
  H  H61  1  0.23170000  0.46340000  0.78080000  1
  H  H62  1  0.23170000  0.46340000  0.71920000  1
  H  H63  1  0.23170000  0.76830000  0.78080000  1
  H  H64  1  0.23170000  0.76830000  0.71920000  1
  H  H65  1  0.19550000  0.09775000  0.33260000  1
  H  H66  1  0.19550000  0.09775000  0.16740000  1
  H  H67  1  0.12260000  0.06130000  0.25000000  1
  H  H68  1  0.09775000  0.19550000  0.83260000  1
  H  H69  1  0.09775000  0.19550000  0.66740000  1
  H  H70  1  0.09775000  0.90225000  0.83260000  1
  H  H71  1  0.09775000  0.90225000  0.66740000  1
  H  H72  1  0.07430000  0.36390000  0.86220000  1
  H  H73  1  0.07430000  0.36390000  0.63780000  1
  H  H74  1  0.07430000  0.71040000  0.86220000  1
  H  H75  1  0.07430000  0.71040000  0.63780000  1
  H  H76  1  0.06130000  0.12260000  0.75000000  1
  H  H77  1  0.06130000  0.93870000  0.75000000  1
  C  C78  1  0.90960000  0.09040000  0.25000000  1
  C  C79  1  0.90960000  0.81920000  0.25000000  1
  C  C80  1  0.90930000  0.35730000  0.45440000  1
  C  C81  1  0.90930000  0.35730000  0.04560000  1
  C  C82  1  0.90930000  0.55200000  0.45440000  1
  C  C83  1  0.90930000  0.55200000  0.04560000  1
  C  C84  1  0.88765000  0.11235000  0.29940000  1
  C  C85  1  0.88765000  0.11235000  0.20060000  1
  C  C86  1  0.88765000  0.77530000  0.29940000  1
  C  C87  1  0.88765000  0.77530000  0.20060000  1
  C  C88  1  0.87520000  0.25300000  0.37918000  1
  C  C89  1  0.87520000  0.25300000  0.12082000  1
  C  C90  1  0.87520000  0.62220000  0.37918000  1
  C  C91  1  0.87520000  0.62220000  0.12082000  1
  C  C92  1  0.85530000  0.27590000  0.42782000  1
  C  C93  1  0.85530000  0.27590000  0.07218000  1
  C  C94  1  0.85530000  0.57940000  0.42782000  1
  C  C95  1  0.85530000  0.57940000  0.07218000  1
  C  C96  1  0.84640000  0.15360000  0.30020000  1
  C  C97  1  0.84640000  0.15360000  0.19980000  1
  C  C98  1  0.84640000  0.69280000  0.30020000  1
  C  C99  1  0.84640000  0.69280000  0.19980000  1
  C  C100  1  0.82545000  0.17455000  0.25000000  1
  C  C101  1  0.82545000  0.65090000  0.25000000  1
  C  C102  1  0.82280000  0.17720000  0.35430000  1
  C  C103  1  0.82280000  0.17720000  0.14570000  1
  C  C104  1  0.82280000  0.64560000  0.35430000  1
  C  C105  1  0.82280000  0.64560000  0.14570000  1
  C  C106  1  0.81920000  0.90960000  0.75000000  1
  C  C107  1  0.77825000  0.22175000  0.45400000  1
  C  C108  1  0.77825000  0.22175000  0.04600000  1
  C  C109  1  0.77825000  0.55650000  0.45400000  1
  C  C110  1  0.77825000  0.55650000  0.04600000  1
  C  C111  1  0.77530000  0.88765000  0.79940000  1
  C  C112  1  0.77530000  0.88765000  0.70060000  1
  C  C113  1  0.74700000  0.12480000  0.37918000  1
  C  C114  1  0.74700000  0.12480000  0.12082000  1
  C  C115  1  0.74700000  0.62220000  0.37918000  1
  C  C116  1  0.74700000  0.62220000  0.12082000  1
  C  C117  1  0.72410000  0.14470000  0.42782000  1
  C  C118  1  0.72410000  0.14470000  0.07218000  1
  C  C119  1  0.72410000  0.57940000  0.42782000  1
  C  C120  1  0.72410000  0.57940000  0.07218000  1
  C  C121  1  0.69280000  0.84640000  0.80020000  1
  C  C122  1  0.69280000  0.84640000  0.69980000  1
  C  C123  1  0.65090000  0.82545000  0.75000000  1
  C  C124  1  0.64560000  0.82280000  0.85430000  1
  C  C125  1  0.64560000  0.82280000  0.64570000  1
  C  C126  1  0.64270000  0.09070000  0.45440000  1
  C  C127  1  0.64270000  0.09070000  0.04560000  1
  C  C128  1  0.64270000  0.55200000  0.45440000  1
  C  C129  1  0.64270000  0.55200000  0.04560000  1
  C  C130  1  0.62220000  0.74700000  0.87918000  1
  C  C131  1  0.62220000  0.74700000  0.62082000  1
  C  C132  1  0.62220000  0.87520000  0.87918000  1
  C  C133  1  0.62220000  0.87520000  0.62082000  1
  C  C134  1  0.57940000  0.72410000  0.92782000  1
  C  C135  1  0.57940000  0.72410000  0.57218000  1
  C  C136  1  0.57940000  0.85530000  0.92782000  1
  C  C137  1  0.57940000  0.85530000  0.57218000  1
  C  C138  1  0.55650000  0.77825000  0.95400000  1
  C  C139  1  0.55650000  0.77825000  0.54600000  1
  C  C140  1  0.55200000  0.64270000  0.95440000  1
  C  C141  1  0.55200000  0.64270000  0.54560000  1
  C  C142  1  0.55200000  0.90930000  0.95440000  1
  C  C143  1  0.55200000  0.90930000  0.54560000  1
  C  C144  1  0.44800000  0.09070000  0.45440000  1
  C  C145  1  0.44800000  0.09070000  0.04560000  1
  C  C146  1  0.44800000  0.35730000  0.45440000  1
  C  C147  1  0.44800000  0.35730000  0.04560000  1
  C  C148  1  0.44350000  0.22175000  0.45400000  1
  C  C149  1  0.44350000  0.22175000  0.04600000  1
  C  C150  1  0.42060000  0.14470000  0.42782000  1
  C  C151  1  0.42060000  0.14470000  0.07218000  1
  C  C152  1  0.42060000  0.27590000  0.42782000  1
  C  C153  1  0.42060000  0.27590000  0.07218000  1
  C  C154  1  0.37780000  0.12480000  0.37918000  1
  C  C155  1  0.37780000  0.12480000  0.12082000  1
  C  C156  1  0.37780000  0.25300000  0.37918000  1
  C  C157  1  0.37780000  0.25300000  0.12082000  1
  C  C158  1  0.35730000  0.44800000  0.95440000  1
  C  C159  1  0.35730000  0.44800000  0.54560000  1
  C  C160  1  0.35730000  0.90930000  0.95440000  1
  C  C161  1  0.35730000  0.90930000  0.54560000  1
  C  C162  1  0.35440000  0.17720000  0.35430000  1
  C  C163  1  0.35440000  0.17720000  0.14570000  1
  C  C164  1  0.34910000  0.17455000  0.25000000  1
  C  C165  1  0.30720000  0.15360000  0.30020000  1
  C  C166  1  0.30720000  0.15360000  0.19980000  1
  C  C167  1  0.27590000  0.42060000  0.92782000  1
  C  C168  1  0.27590000  0.42060000  0.57218000  1
  C  C169  1  0.27590000  0.85530000  0.92782000  1
  C  C170  1  0.27590000  0.85530000  0.57218000  1
  C  C171  1  0.25300000  0.37780000  0.87918000  1
  C  C172  1  0.25300000  0.37780000  0.62082000  1
  C  C173  1  0.25300000  0.87520000  0.87918000  1
  C  C174  1  0.25300000  0.87520000  0.62082000  1
  C  C175  1  0.22470000  0.11235000  0.29940000  1
  C  C176  1  0.22470000  0.11235000  0.20060000  1
  C  C177  1  0.22175000  0.44350000  0.95400000  1
  C  C178  1  0.22175000  0.44350000  0.54600000  1
  C  C179  1  0.22175000  0.77825000  0.95400000  1
  C  C180  1  0.22175000  0.77825000  0.54600000  1
  C  C181  1  0.18080000  0.09040000  0.25000000  1
  C  C182  1  0.17720000  0.35440000  0.85430000  1
  C  C183  1  0.17720000  0.35440000  0.64570000  1
  C  C184  1  0.17720000  0.82280000  0.85430000  1
  C  C185  1  0.17720000  0.82280000  0.64570000  1
  C  C186  1  0.17455000  0.34910000  0.75000000  1
  C  C187  1  0.17455000  0.82545000  0.75000000  1
  C  C188  1  0.15360000  0.30720000  0.80020000  1
  C  C189  1  0.15360000  0.30720000  0.69980000  1
  C  C190  1  0.15360000  0.84640000  0.80020000  1
  C  C191  1  0.15360000  0.84640000  0.69980000  1
  C  C192  1  0.14470000  0.42060000  0.92782000  1
  C  C193  1  0.14470000  0.42060000  0.57218000  1
  C  C194  1  0.14470000  0.72410000  0.92782000  1
  C  C195  1  0.14470000  0.72410000  0.57218000  1
  C  C196  1  0.12480000  0.37780000  0.87918000  1
  C  C197  1  0.12480000  0.37780000  0.62082000  1
  C  C198  1  0.12480000  0.74700000  0.87918000  1
  C  C199  1  0.12480000  0.74700000  0.62082000  1
  C  C200  1  0.11235000  0.22470000  0.79940000  1
  C  C201  1  0.11235000  0.22470000  0.70060000  1
  C  C202  1  0.11235000  0.88765000  0.79940000  1
  C  C203  1  0.11235000  0.88765000  0.70060000  1
  C  C204  1  0.09070000  0.44800000  0.95440000  1
  C  C205  1  0.09070000  0.44800000  0.54560000  1
  C  C206  1  0.09070000  0.64270000  0.95440000  1
  C  C207  1  0.09070000  0.64270000  0.54560000  1
  C  C208  1  0.09040000  0.18080000  0.75000000  1
  C  C209  1  0.09040000  0.90960000  0.75000000  1
  N  N210  1  0.78170000  0.21830000  0.25000000  1
  N  N211  1  0.78170000  0.56340000  0.25000000  1
  N  N212  1  0.56340000  0.78170000  0.75000000  1
  N  N213  1  0.43660000  0.21830000  0.25000000  1
  N  N214  1  0.21830000  0.43660000  0.75000000  1
  N  N215  1  0.21830000  0.78170000  0.75000000  1
  O  O216  1  0.97210000  0.40920000  0.42640000  1
  O  O217  1  0.97210000  0.40920000  0.07360000  1
  O  O218  1  0.97210000  0.56290000  0.42640000  1
  O  O219  1  0.97210000  0.56290000  0.07360000  1
  O  O220  1  0.89060000  0.37030000  0.99838000  1
  O  O221  1  0.89060000  0.37030000  0.50162000  1
  O  O222  1  0.89060000  0.52030000  0.99838000  1
  O  O223  1  0.89060000  0.52030000  0.50162000  1
  O  O224  1  0.62970000  0.10940000  0.99838000  1
  O  O225  1  0.62970000  0.10940000  0.50162000  1
  O  O226  1  0.62970000  0.52030000  0.99838000  1
  O  O227  1  0.62970000  0.52030000  0.50162000  1
  O  O228  1  0.59080000  0.02790000  0.42640000  1
  O  O229  1  0.59080000  0.02790000  0.07360000  1
  O  O230  1  0.59080000  0.56290000  0.42640000  1
  O  O231  1  0.59080000  0.56290000  0.07360000  1
  O  O232  1  0.56290000  0.59080000  0.92640000  1
  O  O233  1  0.56290000  0.59080000  0.57360000  1
  O  O234  1  0.56290000  0.97210000  0.92640000  1
  O  O235  1  0.56290000  0.97210000  0.57360000  1
  O  O236  1  0.52030000  0.62970000  0.49838000  1
  O  O237  1  0.52030000  0.62970000  0.00162000  1
  O  O238  1  0.52030000  0.89060000  0.49838000  1
  O  O239  1  0.52030000  0.89060000  0.00162000  1
  O  O240  1  0.47970000  0.10940000  0.99838000  1
  O  O241  1  0.47970000  0.10940000  0.50162000  1
  O  O242  1  0.47970000  0.37030000  0.99838000  1
  O  O243  1  0.47970000  0.37030000  0.50162000  1
  O  O244  1  0.43710000  0.02790000  0.42640000  1
  O  O245  1  0.43710000  0.02790000  0.07360000  1
  O  O246  1  0.43710000  0.40920000  0.42640000  1
  O  O247  1  0.43710000  0.40920000  0.07360000  1
  O  O248  1  0.40920000  0.43710000  0.92640000  1
  O  O249  1  0.40920000  0.43710000  0.57360000  1
  O  O250  1  0.40920000  0.97210000  0.92640000  1
  O  O251  1  0.40920000  0.97210000  0.57360000  1
  O  O252  1  0.37030000  0.47970000  0.49838000  1
  O  O253  1  0.37030000  0.47970000  0.00162000  1
  O  O254  1  0.37030000  0.89060000  0.49838000  1
  O  O255  1  0.37030000  0.89060000  0.00162000  1
  O  O256  1  0.10940000  0.47970000  0.49838000  1
  O  O257  1  0.10940000  0.47970000  0.00162000  1
  O  O258  1  0.10940000  0.62970000  0.49838000  1
  O  O259  1  0.10940000  0.62970000  0.00162000  1
  O  O260  1  0.02790000  0.43710000  0.92640000  1
  O  O261  1  0.02790000  0.43710000  0.57360000  1
  O  O262  1  0.02790000  0.59080000  0.92640000  1
  O  O263  1  0.02790000  0.59080000  0.57360000  1
