# generated using pymatgen
data_Cu8H40C71(NO9)4
_symmetry_space_group_name_H-M   'P 1'
_cell_length_a   12.50850000
_cell_length_b   12.50850000
_cell_length_c   70.22840000
_cell_angle_alpha   90.00000000
_cell_angle_beta   90.00000000
_cell_angle_gamma   90.00000000
_symmetry_Int_Tables_number   1
_chemical_formula_structural   Cu8H40C71(NO9)4
_chemical_formula_sum   'Cu32 H160 C284 N16 O144'
_cell_volume   10988.11610900
_cell_formula_units_Z   4
loop_
 _symmetry_equiv_pos_site_id
 _symmetry_equiv_pos_as_xyz
  1  'x, y, z'
loop_
 _atom_site_type_symbol
 _atom_site_label
 _atom_site_symmetry_multiplicity
 _atom_site_fract_x
 _atom_site_fract_y
 _atom_site_fract_z
 _atom_site_occupancy
  Cu  Cu0  1  0.02522000  0.34519000  0.74971000  1
  Cu  Cu1  1  0.05919000  0.18690000  0.61729000  1
  Cu  Cu2  1  0.10360000  0.72324000  0.50453000  1
  Cu  Cu3  1  0.11801000  0.12023000  0.41687000  1
  Cu  Cu4  1  0.12023000  0.11801000  0.58313000  1
  Cu  Cu5  1  0.15481000  0.52522000  0.49971000  1
  Cu  Cu6  1  0.18690000  0.05919000  0.38271000  1
  Cu  Cu7  1  0.22324000  0.39640000  0.75453000  1
  Cu  Cu8  1  0.27676000  0.89640000  0.99547000  1
  Cu  Cu9  1  0.31310000  0.55919000  0.36729000  1
  Cu  Cu10  1  0.34519000  0.02522000  0.25029000  1
  Cu  Cu11  1  0.37977000  0.61801000  0.16687000  1
  Cu  Cu12  1  0.38199000  0.62023000  0.33313000  1
  Cu  Cu13  1  0.39640000  0.22324000  0.24547000  1
  Cu  Cu14  1  0.44081000  0.68690000  0.13271000  1
  Cu  Cu15  1  0.47478000  0.84519000  0.00029000  1
  Cu  Cu16  1  0.52522000  0.15481000  0.50029000  1
  Cu  Cu17  1  0.55919000  0.31310000  0.63271000  1
  Cu  Cu18  1  0.60360000  0.77676000  0.74547000  1
  Cu  Cu19  1  0.61801000  0.37977000  0.83313000  1
  Cu  Cu20  1  0.62023000  0.38199000  0.66687000  1
  Cu  Cu21  1  0.65481000  0.97478000  0.75029000  1
  Cu  Cu22  1  0.68690000  0.44081000  0.86729000  1
  Cu  Cu23  1  0.72324000  0.10360000  0.49547000  1
  Cu  Cu24  1  0.77676000  0.60360000  0.25453000  1
  Cu  Cu25  1  0.81310000  0.94081000  0.88271000  1
  Cu  Cu26  1  0.84519000  0.47478000  0.99971000  1
  Cu  Cu27  1  0.87977000  0.88199000  0.08313000  1
  Cu  Cu28  1  0.88199000  0.87977000  0.91687000  1
  Cu  Cu29  1  0.89640000  0.27676000  0.00453000  1
  Cu  Cu30  1  0.94081000  0.81310000  0.11729000  1
  Cu  Cu31  1  0.97478000  0.65481000  0.24971000  1
  H  H32  1  0.01110000  0.36680000  0.68670000  1
  H  H33  1  0.01950000  0.45580000  0.16480000  1
  H  H34  1  0.02500000  0.15010000  0.12870000  1
  H  H35  1  0.02720000  0.39520000  0.86030000  1
  H  H36  1  0.03110000  0.16710000  0.88470000  1
  H  H37  1  0.04420000  0.51950000  0.91480000  1
  H  H38  1  0.04860000  0.57160000  0.64650000  1
  H  H39  1  0.05890000  0.71600000  0.87190000  1
  H  H40  1  0.06720000  0.21770000  0.07580000  1
  H  H41  1  0.06860000  0.59750000  0.86440000  1
  H  H42  1  0.07160000  0.45140000  0.89650000  1
  H  H43  1  0.07570000  0.65110000  0.30640000  1
  H  H44  1  0.07660000  0.16250000  0.91420000  1
  H  H45  1  0.08860000  0.32100000  0.14030000  1
  H  H46  1  0.09750000  0.43140000  0.11440000  1
  H  H47  1  0.10170000  0.60920000  0.11850000  1
  H  H48  1  0.10480000  0.52720000  0.61030000  1
  H  H49  1  0.10650000  0.73660000  0.56680000  1
  H  H50  1  0.10830000  0.66940000  0.90210000  1
  H  H51  1  0.10920000  0.39830000  0.36850000  1
  H  H52  1  0.12770000  0.29720000  0.08960000  1
  H  H53  1  0.13320000  0.51110000  0.43670000  1
  H  H54  1  0.13840000  0.82760000  0.44820000  1
  H  H55  1  0.14840000  0.19330000  0.87780000  1
  H  H56  1  0.15010000  0.02500000  0.87130000  1
  H  H57  1  0.15110000  0.42430000  0.55640000  1
  H  H58  1  0.16210000  0.24520000  0.90700000  1
  H  H59  1  0.16250000  0.07660000  0.08580000  1
  H  H60  1  0.16710000  0.03110000  0.11530000  1
  H  H61  1  0.16940000  0.39170000  0.15210000  1
  H  H62  1  0.16950000  0.72340000  0.39440000  1
  H  H63  1  0.17240000  0.86160000  0.05180000  1
  H  H64  1  0.17900000  0.58860000  0.89030000  1
  H  H65  1  0.19330000  0.14840000  0.12220000  1
  H  H66  1  0.20280000  0.62770000  0.83960000  1
  H  H67  1  0.21600000  0.44110000  0.12190000  1
  H  H68  1  0.21770000  0.06720000  0.92420000  1
  H  H69  1  0.22340000  0.33050000  0.64440000  1
  H  H70  1  0.23660000  0.39350000  0.81680000  1
  H  H71  1  0.24520000  0.16210000  0.09300000  1
  H  H72  1  0.25480000  0.66210000  0.65700000  1
  H  H73  1  0.26340000  0.89350000  0.93320000  1
  H  H74  1  0.27660000  0.83050000  0.10560000  1
  H  H75  1  0.28230000  0.56720000  0.82580000  1
  H  H76  1  0.28400000  0.94110000  0.62810000  1
  H  H77  1  0.29720000  0.12770000  0.91040000  1
  H  H78  1  0.30670000  0.64840000  0.62780000  1
  H  H79  1  0.32100000  0.08860000  0.85970000  1
  H  H80  1  0.32760000  0.36160000  0.69820000  1
  H  H81  1  0.33050000  0.22340000  0.35560000  1
  H  H82  1  0.33060000  0.89170000  0.59790000  1
  H  H83  1  0.33290000  0.53110000  0.63470000  1
  H  H84  1  0.33750000  0.57660000  0.66420000  1
  H  H85  1  0.33790000  0.74520000  0.84300000  1
  H  H86  1  0.34890000  0.92430000  0.19360000  1
  H  H87  1  0.34990000  0.52500000  0.87870000  1
  H  H88  1  0.35160000  0.69330000  0.87220000  1
  H  H89  1  0.36160000  0.32760000  0.30180000  1
  H  H90  1  0.36680000  0.01110000  0.31330000  1
  H  H91  1  0.37230000  0.79720000  0.66040000  1
  H  H92  1  0.39080000  0.89830000  0.38150000  1
  H  H93  1  0.39170000  0.16940000  0.84790000  1
  H  H94  1  0.39350000  0.23660000  0.18320000  1
  H  H95  1  0.39520000  0.02720000  0.13970000  1
  H  H96  1  0.39830000  0.10920000  0.63150000  1
  H  H97  1  0.40250000  0.93140000  0.63560000  1
  H  H98  1  0.41140000  0.82100000  0.60970000  1
  H  H99  1  0.42340000  0.66250000  0.83580000  1
  H  H100  1  0.42430000  0.15110000  0.44360000  1
  H  H101  1  0.42840000  0.95140000  0.85350000  1
  H  H102  1  0.43140000  0.09750000  0.88560000  1
  H  H103  1  0.43280000  0.71770000  0.67420000  1
  H  H104  1  0.44110000  0.21600000  0.87810000  1
  H  H105  1  0.45140000  0.07160000  0.10350000  1
  H  H106  1  0.45580000  0.01950000  0.83520000  1
  H  H107  1  0.46890000  0.66710000  0.86530000  1
  H  H108  1  0.47280000  0.89520000  0.88970000  1
  H  H109  1  0.47500000  0.65010000  0.62130000  1
  H  H110  1  0.48050000  0.95580000  0.58520000  1
  H  H111  1  0.48890000  0.86680000  0.06330000  1
  H  H112  1  0.51110000  0.13320000  0.56330000  1
  H  H113  1  0.51950000  0.04420000  0.08520000  1
  H  H114  1  0.52500000  0.34990000  0.12130000  1
  H  H115  1  0.52720000  0.10480000  0.38970000  1
  H  H116  1  0.53110000  0.33290000  0.36530000  1
  H  H117  1  0.54420000  0.98050000  0.33520000  1
  H  H118  1  0.54860000  0.92840000  0.60350000  1
  H  H119  1  0.55890000  0.78400000  0.37810000  1
  H  H120  1  0.56720000  0.28230000  0.17420000  1
  H  H121  1  0.56860000  0.90250000  0.38560000  1
  H  H122  1  0.57160000  0.04860000  0.35350000  1
  H  H123  1  0.57570000  0.84890000  0.94360000  1
  H  H124  1  0.57660000  0.33750000  0.33580000  1
  H  H125  1  0.58860000  0.17900000  0.10970000  1
  H  H126  1  0.59750000  0.06860000  0.13560000  1
  H  H127  1  0.60170000  0.89080000  0.13150000  1
  H  H128  1  0.60480000  0.97280000  0.63970000  1
  H  H129  1  0.60650000  0.76340000  0.68320000  1
  H  H130  1  0.60830000  0.83060000  0.34790000  1
  H  H131  1  0.60920000  0.10170000  0.88150000  1
  H  H132  1  0.62770000  0.20280000  0.16040000  1
  H  H133  1  0.63320000  0.98890000  0.81330000  1
  H  H134  1  0.63840000  0.67240000  0.80180000  1
  H  H135  1  0.64840000  0.30670000  0.37220000  1
  H  H136  1  0.65010000  0.47500000  0.37870000  1
  H  H137  1  0.65110000  0.07570000  0.69360000  1
  H  H138  1  0.66210000  0.25480000  0.34300000  1
  H  H139  1  0.66250000  0.42340000  0.16420000  1
  H  H140  1  0.66710000  0.46890000  0.13470000  1
  H  H141  1  0.66940000  0.10830000  0.09790000  1
  H  H142  1  0.66950000  0.77660000  0.85560000  1
  H  H143  1  0.67240000  0.63840000  0.19820000  1
  H  H144  1  0.67900000  0.91140000  0.35970000  1
  H  H145  1  0.69330000  0.35160000  0.12780000  1
  H  H146  1  0.70280000  0.87230000  0.41040000  1
  H  H147  1  0.71600000  0.05890000  0.12810000  1
  H  H148  1  0.71770000  0.43280000  0.32580000  1
  H  H149  1  0.72340000  0.16950000  0.60560000  1
  H  H150  1  0.73660000  0.10650000  0.43320000  1
  H  H151  1  0.74520000  0.33790000  0.15700000  1
  H  H152  1  0.75480000  0.83790000  0.59300000  1
  H  H153  1  0.76340000  0.60650000  0.31680000  1
  H  H154  1  0.77660000  0.66950000  0.14440000  1
  H  H155  1  0.78230000  0.93280000  0.42420000  1
  H  H156  1  0.78400000  0.55890000  0.62190000  1
  H  H157  1  0.79720000  0.37230000  0.33960000  1
  H  H158  1  0.80670000  0.85160000  0.62220000  1
  H  H159  1  0.82100000  0.41140000  0.39030000  1
  H  H160  1  0.82760000  0.13840000  0.55180000  1
  H  H161  1  0.83050000  0.27660000  0.89440000  1
  H  H162  1  0.83060000  0.60830000  0.65210000  1
  H  H163  1  0.83290000  0.96890000  0.61530000  1
  H  H164  1  0.83750000  0.92340000  0.58580000  1
  H  H165  1  0.83790000  0.75480000  0.40700000  1
  H  H166  1  0.84890000  0.57570000  0.05640000  1
  H  H167  1  0.84990000  0.97500000  0.37130000  1
  H  H168  1  0.85160000  0.80670000  0.37780000  1
  H  H169  1  0.86160000  0.17240000  0.94820000  1
  H  H170  1  0.86680000  0.48890000  0.93670000  1
  H  H171  1  0.87230000  0.70280000  0.58960000  1
  H  H172  1  0.89080000  0.60170000  0.86850000  1
  H  H173  1  0.89170000  0.33060000  0.40210000  1
  H  H174  1  0.89350000  0.26340000  0.06680000  1
  H  H175  1  0.89520000  0.47280000  0.11030000  1
  H  H176  1  0.89830000  0.39080000  0.61850000  1
  H  H177  1  0.90250000  0.56860000  0.61440000  1
  H  H178  1  0.91140000  0.67900000  0.64030000  1
  H  H179  1  0.92340000  0.83750000  0.41420000  1
  H  H180  1  0.92430000  0.34890000  0.80640000  1
  H  H181  1  0.92840000  0.54860000  0.39650000  1
  H  H182  1  0.93140000  0.40250000  0.36440000  1
  H  H183  1  0.93280000  0.78230000  0.57580000  1
  H  H184  1  0.94110000  0.28400000  0.37190000  1
  H  H185  1  0.95140000  0.42840000  0.14650000  1
  H  H186  1  0.95580000  0.48050000  0.41480000  1
  H  H187  1  0.96890000  0.83290000  0.38470000  1
  H  H188  1  0.97280000  0.60480000  0.36030000  1
  H  H189  1  0.97500000  0.84990000  0.62870000  1
  H  H190  1  0.98050000  0.54420000  0.66480000  1
  H  H191  1  0.98890000  0.63320000  0.18670000  1
  C  C192  1  0.01420000  0.34420000  0.64895000  1
  C  C193  1  0.01500000  0.91300000  0.75320000  1
  C  C194  1  0.01740000  0.27770000  0.25320000  1
  C  C195  1  0.01900000  0.45700000  0.15096000  1
  C  C196  1  0.02010000  0.63770000  0.31485000  1
  C  C197  1  0.02500000  0.97240000  0.61169000  1
  C  C198  1  0.02760000  0.97500000  0.88831000  1
  C  C199  1  0.03840000  0.12740000  0.11554000  1
  C  C200  1  0.04060000  0.62850000  0.33461000  1
  C  C201  1  0.04160000  0.38930000  0.84737000  1
  C  C202  1  0.04300000  0.51900000  0.90096000  1
  C  C203  1  0.04650000  0.64160000  0.87504000  1
  C  C204  1  0.05410000  0.15900000  0.25090000  1
  C  C205  1  0.05680000  0.39390000  0.00373000  1
  C  C206  1  0.06850000  0.37740000  0.37981000  1
  C  C207  1  0.07990000  0.73370000  0.60471000  1
  C  C208  1  0.08080000  0.68170000  0.75160000  1
  C  C209  1  0.08120000  0.36240000  0.68233000  1
  C  C210  1  0.08130000  0.37330000  0.80841000  1
  C  C211  1  0.08700000  0.98500000  0.74680000  1
  C  C212  1  0.09430000  0.22740000  0.08858000  1
  C  C213  1  0.09660000  0.83760000  0.08637000  1
  C  C214  1  0.10110000  0.35650000  0.66321000  1
  C  C215  1  0.10180000  0.64500000  0.59079000  1
  C  C216  1  0.10610000  0.55680000  0.75373000  1
  C  C217  1  0.10630000  0.15130000  0.88670000  1
  C  C218  1  0.10630000  0.61040000  0.89316000  1
  C  C219  1  0.10850000  0.36640000  0.78797000  1
  C  C220  1  0.11040000  0.39370000  0.14316000  1
  C  C221  1  0.11070000  0.54160000  0.59737000  1
  C  C222  1  0.11090000  0.66666667  0.57124000  1
  C  C223  1  0.11370000  0.27370000  0.38863000  1
  C  C224  1  0.12260000  0.56850000  0.12981000  1
  C  C225  1  0.12390000  0.34530000  0.59127000  1
  C  C226  1  0.12670000  0.58130000  0.55841000  1
  C  C227  1  0.12740000  0.03840000  0.88446000  1
  C  C228  1  0.12770000  0.64240000  0.46657000  1
  C  C229  1  0.12850000  0.45940000  0.58461000  1
  C  C230  1  0.12870000  0.87130000  0.75000000  1
  C  C231  1  0.13360000  0.60850000  0.53797000  1
  C  C232  1  0.13730000  0.17200000  0.90580000  1
  C  C233  1  0.13760000  0.58120000  0.43233000  1
  C  C234  1  0.13770000  0.47990000  0.56485000  1
  C  C235  1  0.13830000  0.66550000  0.44534000  1
  C  C236  1  0.14160000  0.45350000  0.12504000  1
  C  C237  1  0.14240000  0.37230000  0.71657000  1
  C  C238  1  0.14340000  0.77180000  0.43947000  1
  C  C239  1  0.14350000  0.60110000  0.41321000  1
  C  C240  1  0.14420000  0.18750000  0.75257000  1
  C  C241  1  0.14500000  0.39820000  0.84079000  1
  C  C242  1  0.14500000  0.75800000  0.75410000  1
  C  C243  1  0.15130000  0.10630000  0.11330000  1
  C  C244  1  0.15470000  0.62390000  0.34127000  1
  C  C245  1  0.15580000  0.51420000  0.39895000  1
  C  C246  1  0.15630000  0.79130000  0.42015000  1
  C  C247  1  0.15830000  0.70870000  0.40722000  1
  C  C248  1  0.15900000  0.05410000  0.74910000  1
  C  C249  1  0.16240000  0.90340000  0.41363000  1
  C  C250  1  0.16550000  0.36170000  0.69534000  1
  C  C251  1  0.16670000  0.38910000  0.82124000  1
  C  C252  1  0.17200000  0.13730000  0.09420000  1
  C  C253  1  0.18170000  0.41920000  0.00160000  1
  C  C254  1  0.18750000  0.14420000  0.24743000  1
  C  C255  1  0.20870000  0.34170000  0.65722000  1
  C  C256  1  0.20870000  0.84370000  0.07985000  1
  C  C257  1  0.22230000  0.51740000  0.00320000  1
  C  C258  1  0.22630000  0.61370000  0.13863000  1
  C  C259  1  0.22740000  0.09430000  0.91142000  1
  C  C260  1  0.22820000  0.85660000  0.06053000  1
  C  C261  1  0.23370000  0.42010000  0.85471000  1
  C  C262  1  0.24200000  0.85500000  0.74590000  1
  C  C263  1  0.25800000  0.35500000  0.00410000  1
  C  C264  1  0.26630000  0.92010000  0.89529000  1
  C  C265  1  0.27180000  0.35660000  0.68947000  1
  C  C266  1  0.27260000  0.59430000  0.83858000  1
  C  C267  1  0.27370000  0.11370000  0.61137000  1
  C  C268  1  0.27770000  0.01740000  0.74680000  1
  C  C269  1  0.29130000  0.34370000  0.67015000  1
  C  C270  1  0.29130000  0.84170000  0.09278000  1
  C  C271  1  0.31250000  0.64420000  0.50257000  1
  C  C272  1  0.31830000  0.91920000  0.74840000  1
  C  C273  1  0.32800000  0.63730000  0.65580000  1
  C  C274  1  0.33333333  0.88910000  0.92876000  1
  C  C275  1  0.33450000  0.86170000  0.05466000  1
  C  C276  1  0.33760000  0.40340000  0.33637000  1
  C  C277  1  0.34100000  0.55410000  0.00090000  1
  C  C278  1  0.34170000  0.20870000  0.34278000  1
  C  C279  1  0.34370000  0.29130000  0.32985000  1
  C  C280  1  0.34420000  0.01420000  0.35105000  1
  C  C281  1  0.34530000  0.12390000  0.40873000  1
  C  C282  1  0.34870000  0.60630000  0.63670000  1
  C  C283  1  0.35500000  0.25800000  0.99590000  1
  C  C284  1  0.35500000  0.89820000  0.90921000  1
  C  C285  1  0.35580000  0.68750000  0.99743000  1
  C  C286  1  0.35650000  0.10110000  0.33679000  1
  C  C287  1  0.35660000  0.27180000  0.31053000  1
  C  C288  1  0.35760000  0.87230000  0.03343000  1
  C  C289  1  0.35840000  0.95350000  0.62496000  1
  C  C290  1  0.36170000  0.16550000  0.30466000  1
  C  C291  1  0.36230000  0.97990000  0.18515000  1
  C  C292  1  0.36240000  0.08120000  0.31767000  1
  C  C293  1  0.36270000  0.67200000  0.84420000  1
  C  C294  1  0.36640000  0.10850000  0.21203000  1
  C  C295  1  0.37130000  0.37130000  0.00000000  1
  C  C296  1  0.37150000  0.95940000  0.16539000  1
  C  C297  1  0.37230000  0.14240000  0.28343000  1
  C  C298  1  0.37260000  0.53840000  0.86554000  1
  C  C299  1  0.37330000  0.08130000  0.19159000  1
  C  C300  1  0.37610000  0.84530000  0.15873000  1
  C  C301  1  0.37740000  0.06850000  0.62019000  1
  C  C302  1  0.38630000  0.77370000  0.36137000  1
  C  C303  1  0.38910000  0.16670000  0.17876000  1
  C  C304  1  0.38930000  0.04160000  0.15263000  1
  C  C305  1  0.38960000  0.89370000  0.60684000  1
  C  C306  1  0.39150000  0.86640000  0.96203000  1
  C  C307  1  0.39370000  0.11040000  0.85684000  1
  C  C308  1  0.39370000  0.65130000  0.86330000  1
  C  C309  1  0.39390000  0.05680000  0.99627000  1
  C  C310  1  0.39820000  0.14500000  0.15921000  1
  C  C311  1  0.39890000  0.85650000  0.08679000  1
  C  C312  1  0.40340000  0.33760000  0.66363000  1
  C  C313  1  0.40570000  0.72740000  0.66142000  1
  C  C314  1  0.41300000  0.48500000  0.00320000  1
  C  C315  1  0.41870000  0.87330000  0.94159000  1
  C  C316  1  0.41880000  0.86240000  0.06767000  1
  C  C317  1  0.41920000  0.18170000  0.99840000  1
  C  C318  1  0.42010000  0.23370000  0.14529000  1
  C  C319  1  0.43150000  0.87740000  0.37019000  1
  C  C320  1  0.44320000  0.89390000  0.74627000  1
  C  C321  1  0.44590000  0.65900000  0.49910000  1
  C  C322  1  0.45350000  0.14160000  0.87496000  1
  C  C323  1  0.45700000  0.01900000  0.84904000  1
  C  C324  1  0.45840000  0.88930000  0.90263000  1
  C  C325  1  0.45940000  0.12850000  0.41539000  1
  C  C326  1  0.46160000  0.62740000  0.63446000  1
  C  C327  1  0.47240000  0.47500000  0.86169000  1
  C  C328  1  0.47500000  0.47240000  0.13831000  1
  C  C329  1  0.47990000  0.13770000  0.43515000  1
  C  C330  1  0.48100000  0.95700000  0.59904000  1
  C  C331  1  0.48260000  0.77770000  0.49680000  1
  C  C332  1  0.48500000  0.41300000  0.99680000  1
  C  C333  1  0.48580000  0.84420000  0.10105000  1
  C  C334  1  0.51420000  0.15580000  0.60105000  1
  C  C335  1  0.51500000  0.58700000  0.49680000  1
  C  C336  1  0.51740000  0.22230000  0.99680000  1
  C  C337  1  0.51900000  0.04300000  0.09904000  1
  C  C338  1  0.52010000  0.86230000  0.93515000  1
  C  C339  1  0.52500000  0.52760000  0.63831000  1
  C  C340  1  0.52760000  0.52500000  0.36169000  1
  C  C341  1  0.53840000  0.37260000  0.13446000  1
  C  C342  1  0.54060000  0.87150000  0.91539000  1
  C  C343  1  0.54160000  0.11070000  0.40263000  1
  C  C344  1  0.54300000  0.98100000  0.34904000  1
  C  C345  1  0.54650000  0.85840000  0.37496000  1
  C  C346  1  0.55410000  0.34100000  0.99910000  1
  C  C347  1  0.55680000  0.10610000  0.24627000  1
  C  C348  1  0.56850000  0.12260000  0.87019000  1
  C  C349  1  0.57990000  0.76630000  0.64529000  1
  C  C350  1  0.58080000  0.81830000  0.49840000  1
  C  C351  1  0.58120000  0.13760000  0.56767000  1
  C  C352  1  0.58130000  0.12670000  0.44159000  1
  C  C353  1  0.58700000  0.51500000  0.50320000  1
  C  C354  1  0.59430000  0.27260000  0.16142000  1
  C  C355  1  0.59660000  0.66240000  0.16363000  1
  C  C356  1  0.60110000  0.14350000  0.58679000  1
  C  C357  1  0.60180000  0.85500000  0.65921000  1
  C  C358  1  0.60610000  0.94320000  0.49627000  1
  C  C359  1  0.60630000  0.34870000  0.36330000  1
  C  C360  1  0.60630000  0.88960000  0.35684000  1
  C  C361  1  0.60850000  0.13360000  0.46203000  1
  C  C362  1  0.61040000  0.10630000  0.10684000  1
  C  C363  1  0.61070000  0.95840000  0.65263000  1
  C  C364  1  0.61090000  0.83330000  0.67876000  1
  C  C365  1  0.61370000  0.22630000  0.86137000  1
  C  C366  1  0.62260000  0.93150000  0.12019000  1
  C  C367  1  0.62390000  0.15470000  0.65873000  1
  C  C368  1  0.62670000  0.91870000  0.69159000  1
  C  C369  1  0.62740000  0.46160000  0.36554000  1
  C  C370  1  0.62770000  0.85760000  0.78343000  1
  C  C371  1  0.62850000  0.04060000  0.66539000  1
  C  C372  1  0.62870000  0.62870000  0.50000000  1
  C  C373  1  0.63360000  0.89150000  0.71203000  1
  C  C374  1  0.63730000  0.32800000  0.34420000  1
  C  C375  1  0.63760000  0.91880000  0.81767000  1
  C  C376  1  0.63770000  0.02010000  0.68515000  1
  C  C377  1  0.63830000  0.83450000  0.80466000  1
  C  C378  1  0.64160000  0.04650000  0.12496000  1
  C  C379  1  0.64240000  0.12770000  0.53343000  1
  C  C380  1  0.64340000  0.72820000  0.81053000  1
  C  C381  1  0.64350000  0.89890000  0.83679000  1
  C  C382  1  0.64420000  0.31250000  0.49743000  1
  C  C383  1  0.64500000  0.10180000  0.40921000  1
  C  C384  1  0.64500000  0.74200000  0.49590000  1
  C  C385  1  0.65130000  0.39370000  0.13670000  1
  C  C386  1  0.65470000  0.87610000  0.90873000  1
  C  C387  1  0.65580000  0.98580000  0.85105000  1
  C  C388  1  0.65630000  0.70870000  0.82985000  1
  C  C389  1  0.65830000  0.79130000  0.84278000  1
  C  C390  1  0.65900000  0.44590000  0.50090000  1
  C  C391  1  0.66240000  0.59660000  0.83637000  1
  C  C392  1  0.66550000  0.13830000  0.55466000  1
  C  C393  1  0.66666667  0.11090000  0.42876000  1
  C  C394  1  0.67200000  0.36270000  0.15580000  1
  C  C395  1  0.68170000  0.08080000  0.24840000  1
  C  C396  1  0.68750000  0.35580000  0.00257000  1
  C  C397  1  0.70870000  0.15830000  0.59278000  1
  C  C398  1  0.70870000  0.65630000  0.17015000  1
  C  C399  1  0.72230000  0.98260000  0.24680000  1
  C  C400  1  0.72630000  0.88630000  0.11137000  1
  C  C401  1  0.72740000  0.40570000  0.33858000  1
  C  C402  1  0.72820000  0.64340000  0.18947000  1
  C  C403  1  0.73370000  0.07990000  0.39529000  1
  C  C404  1  0.74200000  0.64500000  0.50410000  1
  C  C405  1  0.75800000  0.14500000  0.24590000  1
  C  C406  1  0.76630000  0.57990000  0.35471000  1
  C  C407  1  0.77180000  0.14340000  0.56053000  1
  C  C408  1  0.77260000  0.90570000  0.41142000  1
  C  C409  1  0.77370000  0.38630000  0.63863000  1
  C  C410  1  0.77770000  0.48260000  0.50320000  1
  C  C411  1  0.79130000  0.15630000  0.57985000  1
  C  C412  1  0.79130000  0.65830000  0.15722000  1
  C  C413  1  0.81250000  0.85580000  0.74743000  1
  C  C414  1  0.81830000  0.58080000  0.50160000  1
  C  C415  1  0.82800000  0.86270000  0.59420000  1
  C  C416  1  0.83330000  0.61090000  0.32124000  1
  C  C417  1  0.83450000  0.63830000  0.19534000  1
  C  C418  1  0.83760000  0.09660000  0.91363000  1
  C  C419  1  0.84100000  0.94590000  0.24910000  1
  C  C420  1  0.84170000  0.29130000  0.90722000  1
  C  C421  1  0.84370000  0.20870000  0.92015000  1
  C  C422  1  0.84420000  0.48580000  0.89895000  1
  C  C423  1  0.84530000  0.37610000  0.84127000  1
  C  C424  1  0.84870000  0.89370000  0.61330000  1
  C  C425  1  0.85500000  0.24200000  0.25410000  1
  C  C426  1  0.85500000  0.60180000  0.34079000  1
  C  C427  1  0.85580000  0.81250000  0.25257000  1
  C  C428  1  0.85650000  0.39890000  0.91321000  1
  C  C429  1  0.85660000  0.22820000  0.93947000  1
  C  C430  1  0.85760000  0.62770000  0.21657000  1
  C  C431  1  0.85840000  0.54650000  0.62504000  1
  C  C432  1  0.86170000  0.33450000  0.94534000  1
  C  C433  1  0.86230000  0.52010000  0.06485000  1
  C  C434  1  0.86240000  0.41880000  0.93233000  1
  C  C435  1  0.86270000  0.82800000  0.40580000  1
  C  C436  1  0.86640000  0.39150000  0.03797000  1
  C  C437  1  0.87130000  0.12870000  0.25000000  1
  C  C438  1  0.87150000  0.54060000  0.08461000  1
  C  C439  1  0.87230000  0.35760000  0.96657000  1
  C  C440  1  0.87260000  0.96160000  0.38446000  1
  C  C441  1  0.87330000  0.41870000  0.05841000  1
  C  C442  1  0.87610000  0.65470000  0.09127000  1
  C  C443  1  0.87740000  0.43150000  0.62981000  1
  C  C444  1  0.88630000  0.72630000  0.88863000  1
  C  C445  1  0.88910000  0.33333333  0.07124000  1
  C  C446  1  0.88930000  0.45840000  0.09737000  1
  C  C447  1  0.88960000  0.60630000  0.64316000  1
  C  C448  1  0.89150000  0.63360000  0.28797000  1
  C  C449  1  0.89370000  0.38960000  0.39316000  1
  C  C450  1  0.89370000  0.84870000  0.38670000  1
  C  C451  1  0.89390000  0.44320000  0.25373000  1
  C  C452  1  0.89820000  0.35500000  0.09079000  1
  C  C453  1  0.89890000  0.64350000  0.16321000  1
  C  C454  1  0.90340000  0.16240000  0.58637000  1
  C  C455  1  0.90570000  0.77260000  0.58858000  1
  C  C456  1  0.91300000  0.01500000  0.24680000  1
  C  C457  1  0.91870000  0.62670000  0.30841000  1
  C  C458  1  0.91880000  0.63760000  0.18233000  1
  C  C459  1  0.91920000  0.31830000  0.25160000  1
  C  C460  1  0.92010000  0.26630000  0.10471000  1
  C  C461  1  0.93150000  0.62260000  0.87981000  1
  C  C462  1  0.94320000  0.60610000  0.50373000  1
  C  C463  1  0.94590000  0.84100000  0.75090000  1
  C  C464  1  0.95350000  0.35840000  0.37504000  1
  C  C465  1  0.95700000  0.48100000  0.40096000  1
  C  C466  1  0.95840000  0.61070000  0.34737000  1
  C  C467  1  0.95940000  0.37150000  0.83461000  1
  C  C468  1  0.96160000  0.87260000  0.61554000  1
  C  C469  1  0.97240000  0.02500000  0.38831000  1
  C  C470  1  0.97500000  0.02760000  0.11169000  1
  C  C471  1  0.97990000  0.36230000  0.81485000  1
  C  C472  1  0.98100000  0.54300000  0.65096000  1
  C  C473  1  0.98260000  0.72230000  0.75320000  1
  C  C474  1  0.98500000  0.08700000  0.25320000  1
  C  C475  1  0.98580000  0.65580000  0.14895000  1
  N  N476  1  0.00950000  0.21330000  0.10293000  1
  N  N477  1  0.03520000  0.56560000  0.14388000  1
  N  N478  1  0.06560000  0.46480000  0.39388000  1
  N  N479  1  0.21330000  0.00950000  0.89707000  1
  N  N480  1  0.28670000  0.50950000  0.85293000  1
  N  N481  1  0.43440000  0.96480000  0.35612000  1
  N  N482  1  0.46480000  0.06560000  0.60612000  1
  N  N483  1  0.49050000  0.71330000  0.64707000  1
  N  N484  1  0.50950000  0.28670000  0.14707000  1
  N  N485  1  0.53520000  0.93440000  0.10612000  1
  N  N486  1  0.56560000  0.03520000  0.85612000  1
  N  N487  1  0.71330000  0.49050000  0.35293000  1
  N  N488  1  0.78670000  0.99050000  0.39707000  1
  N  N489  1  0.93440000  0.53520000  0.89388000  1
  N  N490  1  0.96480000  0.43440000  0.64388000  1
  N  N491  1  0.99050000  0.78670000  0.60293000  1
  O  O492  1  0.00860000  0.47440000  0.00058000  1
  O  O493  1  0.01020000  0.74280000  0.14224000  1
  O  O494  1  0.01710000  0.92920000  0.90433000  1
  O  O495  1  0.02140000  0.04330000  0.62445000  1
  O  O496  1  0.02320000  0.34470000  0.77709000  1
  O  O497  1  0.02560000  0.50860000  0.75058000  1
  O  O498  1  0.02600000  0.86320000  0.07423000  1
  O  O499  1  0.04330000  0.02140000  0.37555000  1
  O  O500  1  0.04330000  0.29400000  0.00470000  1
  O  O501  1  0.05060000  0.19590000  0.74914000  1
  O  O502  1  0.05580000  0.35440000  0.72217000  1
  O  O503  1  0.07080000  0.98290000  0.59567000  1
  O  O504  1  0.07970000  0.80620000  0.10310000  1
  O  O505  1  0.09850000  0.32870000  0.60798000  1
  O  O506  1  0.10060000  0.25870000  0.40570000  1
  O  O507  1  0.10140000  0.72010000  0.47697000  1
  O  O508  1  0.11740000  0.69740000  0.53192000  1
  O  O509  1  0.13680000  0.97400000  0.42577000  1
  O  O510  1  0.14050000  0.75000000  0.61838000  1
  O  O511  1  0.14560000  0.55580000  0.47217000  1
  O  O512  1  0.14640000  0.26980000  0.57905000  1
  O  O513  1  0.15420000  0.20900000  0.37644000  1
  O  O514  1  0.15530000  0.52320000  0.52709000  1
  O  O515  1  0.17130000  0.59850000  0.35798000  1
  O  O516  1  0.19380000  0.92030000  0.39690000  1
  O  O517  1  0.19590000  0.05060000  0.25086000  1
  O  O518  1  0.19740000  0.38260000  0.78192000  1
  O  O519  1  0.20600000  0.54330000  0.75470000  1
  O  O520  1  0.20900000  0.15420000  0.62356000  1
  O  O521  1  0.22010000  0.39860000  0.72697000  1
  O  O522  1  0.22450000  0.22920000  0.75404000  1
  O  O523  1  0.22920000  0.22450000  0.24596000  1
  O  O524  1  0.23020000  0.64640000  0.32905000  1
  O  O525  1  0.24130000  0.60060000  0.15570000  1
  O  O526  1  0.24280000  0.48980000  0.39224000  1
  O  O527  1  0.25000000  0.35950000  0.86838000  1
  O  O528  1  0.25000000  0.85950000  0.88162000  1
  O  O529  1  0.25720000  0.98980000  0.35776000  1
  O  O530  1  0.25870000  0.10060000  0.59430000  1
  O  O531  1  0.26980000  0.14640000  0.42095000  1
  O  O532  1  0.27080000  0.72450000  0.50404000  1
  O  O533  1  0.27550000  0.72920000  0.99596000  1
  O  O534  1  0.27990000  0.89860000  0.02303000  1
  O  O535  1  0.29100000  0.65420000  0.12644000  1
  O  O536  1  0.29400000  0.04330000  0.99530000  1
  O  O537  1  0.30260000  0.88260000  0.96808000  1
  O  O538  1  0.30410000  0.55060000  0.49914000  1
  O  O539  1  0.30620000  0.42030000  0.35310000  1
  O  O540  1  0.32870000  0.09850000  0.39202000  1
  O  O541  1  0.34470000  0.02320000  0.22291000  1
  O  O542  1  0.34580000  0.70900000  0.37356000  1
  O  O543  1  0.35360000  0.76980000  0.17095000  1
  O  O544  1  0.35440000  0.05580000  0.27783000  1
  O  O545  1  0.35950000  0.25000000  0.13162000  1
  O  O546  1  0.36320000  0.47400000  0.32423000  1
  O  O547  1  0.38260000  0.19740000  0.21808000  1
  O  O548  1  0.39860000  0.22010000  0.27303000  1
  O  O549  1  0.39940000  0.75870000  0.34430000  1
  O  O550  1  0.40150000  0.82870000  0.14202000  1
  O  O551  1  0.42030000  0.30620000  0.64690000  1
  O  O552  1  0.42920000  0.48290000  0.15433000  1
  O  O553  1  0.44420000  0.85440000  0.02783000  1
  O  O554  1  0.44940000  0.69590000  0.00086000  1
  O  O555  1  0.45670000  0.52140000  0.37445000  1
  O  O556  1  0.45670000  0.79400000  0.74530000  1
  O  O557  1  0.47400000  0.36320000  0.67577000  1
  O  O558  1  0.47440000  0.00860000  0.99942000  1
  O  O559  1  0.47680000  0.84470000  0.97291000  1
  O  O560  1  0.47860000  0.54330000  0.12555000  1
  O  O561  1  0.48290000  0.42920000  0.84567000  1
  O  O562  1  0.48980000  0.24280000  0.60776000  1
  O  O563  1  0.49140000  0.97440000  0.74942000  1
  O  O564  1  0.50860000  0.02560000  0.24942000  1
  O  O565  1  0.51020000  0.75720000  0.10776000  1
  O  O566  1  0.51710000  0.57080000  0.34567000  1
  O  O567  1  0.52140000  0.45670000  0.62555000  1
  O  O568  1  0.52320000  0.15530000  0.47291000  1
  O  O569  1  0.52560000  0.99140000  0.49942000  1
  O  O570  1  0.52600000  0.63680000  0.17577000  1
  O  O571  1  0.54330000  0.20600000  0.24530000  1
  O  O572  1  0.54330000  0.47860000  0.87445000  1
  O  O573  1  0.55060000  0.30410000  0.50086000  1
  O  O574  1  0.55580000  0.14560000  0.52783000  1
  O  O575  1  0.57080000  0.51710000  0.65433000  1
  O  O576  1  0.57970000  0.69380000  0.14690000  1
  O  O577  1  0.59850000  0.17130000  0.64202000  1
  O  O578  1  0.60060000  0.24130000  0.84430000  1
  O  O579  1  0.60140000  0.77990000  0.77303000  1
  O  O580  1  0.61740000  0.80260000  0.71808000  1
  O  O581  1  0.63680000  0.52600000  0.82423000  1
  O  O582  1  0.64050000  0.75000000  0.63162000  1
  O  O583  1  0.64560000  0.94420000  0.77783000  1
  O  O584  1  0.64640000  0.23020000  0.67095000  1
  O  O585  1  0.65420000  0.29100000  0.87356000  1
  O  O586  1  0.65530000  0.97680000  0.72291000  1
  O  O587  1  0.67130000  0.90150000  0.89202000  1
  O  O588  1  0.69380000  0.57970000  0.85310000  1
  O  O589  1  0.69590000  0.44940000  0.99914000  1
  O  O590  1  0.69740000  0.11740000  0.46808000  1
  O  O591  1  0.70600000  0.95670000  0.49530000  1
  O  O592  1  0.70900000  0.34580000  0.62644000  1
  O  O593  1  0.72010000  0.10140000  0.52303000  1
  O  O594  1  0.72450000  0.27080000  0.49596000  1
  O  O595  1  0.72920000  0.27550000  0.00404000  1
  O  O596  1  0.73020000  0.85360000  0.92095000  1
  O  O597  1  0.74130000  0.89940000  0.09430000  1
  O  O598  1  0.74280000  0.01020000  0.85776000  1
  O  O599  1  0.75000000  0.14050000  0.38162000  1
  O  O600  1  0.75000000  0.64050000  0.36838000  1
  O  O601  1  0.75720000  0.51020000  0.89224000  1
  O  O602  1  0.75870000  0.39940000  0.65570000  1
  O  O603  1  0.76980000  0.35360000  0.82905000  1
  O  O604  1  0.77080000  0.77550000  0.74596000  1
  O  O605  1  0.77550000  0.77080000  0.25404000  1
  O  O606  1  0.77990000  0.60140000  0.22697000  1
  O  O607  1  0.79100000  0.84580000  0.12356000  1
  O  O608  1  0.79400000  0.45670000  0.25470000  1
  O  O609  1  0.80260000  0.61740000  0.28192000  1
  O  O610  1  0.80410000  0.94940000  0.75086000  1
  O  O611  1  0.80620000  0.07970000  0.89690000  1
  O  O612  1  0.82870000  0.40150000  0.85798000  1
  O  O613  1  0.84470000  0.47680000  0.02709000  1
  O  O614  1  0.84580000  0.79100000  0.87644000  1
  O  O615  1  0.85360000  0.73020000  0.07905000  1
  O  O616  1  0.85440000  0.44420000  0.97217000  1
  O  O617  1  0.85950000  0.25000000  0.11838000  1
  O  O618  1  0.86320000  0.02600000  0.92577000  1
  O  O619  1  0.88260000  0.30260000  0.03192000  1
  O  O620  1  0.89860000  0.27990000  0.97697000  1
  O  O621  1  0.89940000  0.74130000  0.90570000  1
  O  O622  1  0.90150000  0.67130000  0.10798000  1
  O  O623  1  0.92030000  0.19380000  0.60310000  1
  O  O624  1  0.92920000  0.01710000  0.09567000  1
  O  O625  1  0.94420000  0.64560000  0.22217000  1
  O  O626  1  0.94940000  0.80410000  0.24914000  1
  O  O627  1  0.95670000  0.70600000  0.50470000  1
  O  O628  1  0.95670000  0.97860000  0.87555000  1
  O  O629  1  0.97400000  0.13680000  0.57423000  1
  O  O630  1  0.97440000  0.49140000  0.25058000  1
  O  O631  1  0.97680000  0.65530000  0.27709000  1
  O  O632  1  0.97860000  0.95670000  0.12445000  1
  O  O633  1  0.98290000  0.07080000  0.40433000  1
  O  O634  1  0.98980000  0.25720000  0.64224000  1
  O  O635  1  0.99140000  0.52560000  0.50058000  1
