# generated using pymatgen
data_K2P8Pt2IO20
_symmetry_space_group_name_H-M   'P 1'
_cell_length_a   13.45190000
_cell_length_b   13.45190000
_cell_length_c   17.26500000
_cell_angle_alpha   90.00000000
_cell_angle_beta   90.00000000
_cell_angle_gamma   90.00000000
_symmetry_Int_Tables_number   1
_chemical_formula_structural   K2P8Pt2IO20
_chemical_formula_sum   'K8 P32 Pt8 I4 O80'
_cell_volume   3124.16413898
_cell_formula_units_Z   4
loop_
 _symmetry_equiv_pos_site_id
 _symmetry_equiv_pos_as_xyz
  1  'x, y, z'
loop_
 _atom_site_type_symbol
 _atom_site_label
 _atom_site_symmetry_multiplicity
 _atom_site_fract_x
 _atom_site_fract_y
 _atom_site_fract_z
 _atom_site_occupancy
  K  K0  1  0.21544000  0.76821000  0.90782000  1
  K  K1  1  0.23179000  0.21544000  0.90782000  1
  K  K2  1  0.26821000  0.71544000  0.40782000  1
  K  K3  1  0.28456000  0.26821000  0.40782000  1
  K  K4  1  0.71544000  0.73179000  0.40782000  1
  K  K5  1  0.73179000  0.28456000  0.40782000  1
  K  K6  1  0.76821000  0.78456000  0.90782000  1
  K  K7  1  0.78456000  0.23179000  0.90782000  1
  P  P8  1  0.07470000  0.15700000  0.56958000  1
  P  P9  1  0.08590000  0.15170000  0.24750000  1
  P  P10  1  0.10500000  0.13686000  0.73990000  1
  P  P11  1  0.11690000  0.12890000  0.07985000  1
  P  P12  1  0.12890000  0.88310000  0.07985000  1
  P  P13  1  0.13686000  0.89500000  0.73990000  1
  P  P14  1  0.15170000  0.91410000  0.24750000  1
  P  P15  1  0.15700000  0.92530000  0.56958000  1
  P  P16  1  0.34300000  0.42530000  0.06958000  1
  P  P17  1  0.34830000  0.41410000  0.74750000  1
  P  P18  1  0.36314000  0.39500000  0.23990000  1
  P  P19  1  0.37110000  0.38310000  0.57985000  1
  P  P20  1  0.38310000  0.62890000  0.57985000  1
  P  P21  1  0.39500000  0.63686000  0.23990000  1
  P  P22  1  0.41410000  0.65170000  0.74750000  1
  P  P23  1  0.42530000  0.65700000  0.06958000  1
  P  P24  1  0.57470000  0.34300000  0.06958000  1
  P  P25  1  0.58590000  0.34830000  0.74750000  1
  P  P26  1  0.60500000  0.36314000  0.23990000  1
  P  P27  1  0.61690000  0.37110000  0.57985000  1
  P  P28  1  0.62890000  0.61690000  0.57985000  1
  P  P29  1  0.63686000  0.60500000  0.23990000  1
  P  P30  1  0.65170000  0.58590000  0.74750000  1
  P  P31  1  0.65700000  0.57470000  0.06958000  1
  P  P32  1  0.84300000  0.07470000  0.56958000  1
  P  P33  1  0.84830000  0.08590000  0.24750000  1
  P  P34  1  0.86314000  0.10500000  0.73990000  1
  P  P35  1  0.87110000  0.11690000  0.07985000  1
  P  P36  1  0.88310000  0.87110000  0.07985000  1
  P  P37  1  0.89500000  0.86314000  0.73990000  1
  P  P38  1  0.91410000  0.84830000  0.24750000  1
  P  P39  1  0.92530000  0.84300000  0.56958000  1
  Pt  Pt40  1  0.00000000  0.00000000  0.08293000  1
  Pt  Pt41  1  0.00000000  0.00000000  0.24258000  1
  Pt  Pt42  1  0.00000000  0.00000000  0.57308000  1
  Pt  Pt43  1  0.00000000  0.00000000  0.73887000  1
  Pt  Pt44  1  0.50000000  0.50000000  0.07308000  1
  Pt  Pt45  1  0.50000000  0.50000000  0.23887000  1
  Pt  Pt46  1  0.50000000  0.50000000  0.58293000  1
  Pt  Pt47  1  0.50000000  0.50000000  0.74258000  1
  I  I48  1  0.00000000  0.00000000  0.40216000  1
  I  I49  1  0.00000000  0.00000000  0.92027000  1
  I  I50  1  0.50000000  0.50000000  0.42027000  1
  I  I51  1  0.50000000  0.50000000  0.90216000  1
  O  O52  1  0.01420000  0.24230000  0.54100000  1
  O  O53  1  0.02660000  0.23990000  0.27580000  1
  O  O54  1  0.06540000  0.22660000  0.79220000  1
  O  O55  1  0.08420000  0.21920000  0.02730000  1
  O  O56  1  0.10050000  0.77990000  0.05540000  1
  O  O57  1  0.10640000  0.19070000  0.65620000  1
  O  O58  1  0.12000000  0.78790000  0.76280000  1
  O  O59  1  0.12870000  0.18030000  0.16360000  1
  O  O60  1  0.14450000  0.81570000  0.29620000  1
  O  O61  1  0.16110000  0.82530000  0.52410000  1
  O  O62  1  0.17470000  0.16110000  0.52410000  1
  O  O63  1  0.18030000  0.87130000  0.16360000  1
  O  O64  1  0.18430000  0.14450000  0.29620000  1
  O  O65  1  0.19070000  0.89360000  0.65620000  1
  O  O66  1  0.21210000  0.12000000  0.76280000  1
  O  O67  1  0.21920000  0.91580000  0.02730000  1
  O  O68  1  0.22010000  0.10050000  0.05540000  1
  O  O69  1  0.22660000  0.93460000  0.79220000  1
  O  O70  1  0.23990000  0.97340000  0.27580000  1
  O  O71  1  0.24230000  0.98580000  0.54100000  1
  O  O72  1  0.25770000  0.48580000  0.04100000  1
  O  O73  1  0.26010000  0.47340000  0.77580000  1
  O  O74  1  0.27340000  0.43460000  0.29220000  1
  O  O75  1  0.27990000  0.60050000  0.55540000  1
  O  O76  1  0.28080000  0.41580000  0.52730000  1
  O  O77  1  0.28790000  0.62000000  0.26280000  1
  O  O78  1  0.30930000  0.39360000  0.15620000  1
  O  O79  1  0.31570000  0.64450000  0.79620000  1
  O  O80  1  0.31970000  0.37130000  0.66360000  1
  O  O81  1  0.32530000  0.66110000  0.02410000  1
  O  O82  1  0.33890000  0.32530000  0.02410000  1
  O  O83  1  0.35550000  0.31570000  0.79620000  1
  O  O84  1  0.37130000  0.68030000  0.66360000  1
  O  O85  1  0.38000000  0.28790000  0.26280000  1
  O  O86  1  0.39360000  0.69070000  0.15620000  1
  O  O87  1  0.39950000  0.27990000  0.55540000  1
  O  O88  1  0.41580000  0.71920000  0.52730000  1
  O  O89  1  0.43460000  0.72660000  0.29220000  1
  O  O90  1  0.47340000  0.73990000  0.77580000  1
  O  O91  1  0.48580000  0.74230000  0.04100000  1
  O  O92  1  0.51420000  0.25770000  0.04100000  1
  O  O93  1  0.52660000  0.26010000  0.77580000  1
  O  O94  1  0.56540000  0.27340000  0.29220000  1
  O  O95  1  0.58420000  0.28080000  0.52730000  1
  O  O96  1  0.60050000  0.72010000  0.55540000  1
  O  O97  1  0.60640000  0.30930000  0.15620000  1
  O  O98  1  0.62000000  0.71210000  0.26280000  1
  O  O99  1  0.62870000  0.31970000  0.66360000  1
  O  O100  1  0.64450000  0.68430000  0.79620000  1
  O  O101  1  0.66110000  0.67470000  0.02410000  1
  O  O102  1  0.67470000  0.33890000  0.02410000  1
  O  O103  1  0.68030000  0.62870000  0.66360000  1
  O  O104  1  0.68430000  0.35550000  0.79620000  1
  O  O105  1  0.69070000  0.60640000  0.15620000  1
  O  O106  1  0.71210000  0.38000000  0.26280000  1
  O  O107  1  0.71920000  0.58420000  0.52730000  1
  O  O108  1  0.72010000  0.39950000  0.55540000  1
  O  O109  1  0.72660000  0.56540000  0.29220000  1
  O  O110  1  0.73990000  0.52660000  0.77580000  1
  O  O111  1  0.74230000  0.51420000  0.04100000  1
  O  O112  1  0.75770000  0.01420000  0.54100000  1
  O  O113  1  0.76010000  0.02660000  0.27580000  1
  O  O114  1  0.77340000  0.06540000  0.79220000  1
  O  O115  1  0.77990000  0.89950000  0.05540000  1
  O  O116  1  0.78080000  0.08420000  0.02730000  1
  O  O117  1  0.78790000  0.88000000  0.76280000  1
  O  O118  1  0.80930000  0.10640000  0.65620000  1
  O  O119  1  0.81570000  0.85550000  0.29620000  1
  O  O120  1  0.81970000  0.12870000  0.16360000  1
  O  O121  1  0.82530000  0.83890000  0.52410000  1
  O  O122  1  0.83890000  0.17470000  0.52410000  1
  O  O123  1  0.85550000  0.18430000  0.29620000  1
  O  O124  1  0.87130000  0.81970000  0.16360000  1
  O  O125  1  0.88000000  0.21210000  0.76280000  1
  O  O126  1  0.89360000  0.80930000  0.65620000  1
  O  O127  1  0.89950000  0.22010000  0.05540000  1
  O  O128  1  0.91580000  0.78080000  0.02730000  1
  O  O129  1  0.93460000  0.77340000  0.79220000  1
  O  O130  1  0.97340000  0.76010000  0.27580000  1
  O  O131  1  0.98580000  0.75770000  0.54100000  1
