# generated using pymatgen
data_LaH40C40N6ClO10
_symmetry_space_group_name_H-M   'P 1'
_cell_length_a   16.41740000
_cell_length_b   18.17980000
_cell_length_c   18.17980000
_cell_angle_alpha   90.00000000
_cell_angle_beta   90.00000000
_cell_angle_gamma   90.00000000
_symmetry_Int_Tables_number   1
_chemical_formula_structural   LaH40C40N6ClO10
_chemical_formula_sum   'La4 H160 C160 N24 Cl4 O40'
_cell_volume   5426.03488908
_cell_formula_units_Z   4
loop_
 _symmetry_equiv_pos_site_id
 _symmetry_equiv_pos_as_xyz
  1  'x, y, z'
loop_
 _atom_site_type_symbol
 _atom_site_label
 _atom_site_symmetry_multiplicity
 _atom_site_fract_x
 _atom_site_fract_y
 _atom_site_fract_z
 _atom_site_occupancy
  La  La0  1  0.00000000  0.78480000  0.78480000  1
  La  La1  1  0.25000000  0.71520000  0.28480000  1
  La  La2  1  0.50000000  0.21520000  0.21520000  1
  La  La3  1  0.75000000  0.28480000  0.71520000  1
  H  H4  1  0.00040000  0.19440000  0.94870000  1
  H  H5  1  0.02770000  0.82050000  0.13890000  1
  H  H6  1  0.03370000  0.41040000  0.78260000  1
  H  H7  1  0.03500000  0.11270000  0.71500000  1
  H  H8  1  0.04660000  0.14630000  0.00690000  1
  H  H9  1  0.05240000  0.04560000  0.92260000  1
  H  H10  1  0.06130000  0.97080000  0.39750000  1
  H  H11  1  0.06350000  0.01890000  0.07130000  1
  H  H12  1  0.06810000  0.70790000  0.46840000  1
  H  H13  1  0.06860000  0.54700000  0.59410000  1
  H  H14  1  0.08110000  0.58670000  0.01690000  1
  H  H15  1  0.08210000  0.45940000  0.01370000  1
  H  H16  1  0.09000000  0.03330000  0.15310000  1
  H  H17  1  0.09140000  0.11500000  0.88480000  1
  H  H18  1  0.09900000  0.88700000  0.01600000  1
  H  H19  1  0.10480000  0.10380000  0.60260000  1
  H  H20  1  0.10790000  0.58390000  0.66330000  1
  H  H21  1  0.11140000  0.08270000  0.36460000  1
  H  H22  1  0.11530000  0.85160000  0.61800000  1
  H  H23  1  0.11710000  0.86550000  0.35930000  1
  H  H24  1  0.13290000  0.63450000  0.85930000  1
  H  H25  1  0.13470000  0.64840000  0.11800000  1
  H  H26  1  0.13860000  0.41730000  0.86460000  1
  H  H27  1  0.14210000  0.91610000  0.16330000  1
  H  H28  1  0.14520000  0.39620000  0.10260000  1
  H  H29  1  0.15100000  0.61300000  0.51600000  1
  H  H30  1  0.15860000  0.38500000  0.38480000  1
  H  H31  1  0.16000000  0.46670000  0.65310000  1
  H  H32  1  0.16790000  0.04060000  0.51370000  1
  H  H33  1  0.16890000  0.91330000  0.51690000  1
  H  H34  1  0.18140000  0.95300000  0.09410000  1
  H  H35  1  0.18190000  0.79210000  0.96840000  1
  H  H36  1  0.18650000  0.48110000  0.57130000  1
  H  H37  1  0.18870000  0.52920000  0.89750000  1
  H  H38  1  0.19760000  0.45440000  0.42260000  1
  H  H39  1  0.20340000  0.35370000  0.50690000  1
  H  H40  1  0.21500000  0.38730000  0.21500000  1
  H  H41  1  0.21630000  0.08960000  0.28260000  1
  H  H42  1  0.22230000  0.67950000  0.63890000  1
  H  H43  1  0.24960000  0.30560000  0.44870000  1
  H  H44  1  0.25040000  0.55130000  0.69440000  1
  H  H45  1  0.27770000  0.36110000  0.32050000  1
  H  H46  1  0.28370000  0.71740000  0.91040000  1
  H  H47  1  0.28500000  0.78500000  0.61270000  1
  H  H48  1  0.29660000  0.49310000  0.64630000  1
  H  H49  1  0.30240000  0.57740000  0.54560000  1
  H  H50  1  0.31130000  0.10250000  0.47080000  1
  H  H51  1  0.31350000  0.42870000  0.51890000  1
  H  H52  1  0.31810000  0.03160000  0.20790000  1
  H  H53  1  0.31860000  0.90590000  0.04700000  1
  H  H54  1  0.33110000  0.48310000  0.08670000  1
  H  H55  1  0.33210000  0.48630000  0.95940000  1
  H  H56  1  0.34000000  0.34690000  0.53330000  1
  H  H57  1  0.34140000  0.61520000  0.61500000  1
  H  H58  1  0.34900000  0.48400000  0.38700000  1
  H  H59  1  0.35480000  0.89740000  0.60380000  1
  H  H60  1  0.35790000  0.83670000  0.08390000  1
  H  H61  1  0.36140000  0.13540000  0.58270000  1
  H  H62  1  0.36530000  0.88200000  0.35160000  1
  H  H63  1  0.36710000  0.14070000  0.36550000  1
  H  H64  1  0.38290000  0.64070000  0.13450000  1
  H  H65  1  0.38470000  0.38200000  0.14840000  1
  H  H66  1  0.38860000  0.63540000  0.91730000  1
  H  H67  1  0.39210000  0.33670000  0.41610000  1
  H  H68  1  0.39520000  0.39740000  0.89620000  1
  H  H69  1  0.40100000  0.98400000  0.11300000  1
  H  H70  1  0.40860000  0.11520000  0.88500000  1
  H  H71  1  0.41000000  0.84690000  0.96670000  1
  H  H72  1  0.41790000  0.98630000  0.54060000  1
  H  H73  1  0.41890000  0.98310000  0.41330000  1
  H  H74  1  0.43140000  0.40590000  0.45300000  1
  H  H75  1  0.43190000  0.53160000  0.29210000  1
  H  H76  1  0.43650000  0.92870000  0.98110000  1
  H  H77  1  0.43870000  0.60250000  0.02920000  1
  H  H78  1  0.44760000  0.07740000  0.95440000  1
  H  H79  1  0.45340000  0.99310000  0.85370000  1
  H  H80  1  0.46500000  0.28500000  0.88730000  1
  H  H81  1  0.46630000  0.21740000  0.58960000  1
  H  H82  1  0.47230000  0.86110000  0.17950000  1
  H  H83  1  0.49960000  0.05130000  0.80560000  1
  H  H84  1  0.50040000  0.80560000  0.05130000  1
  H  H85  1  0.52770000  0.17950000  0.86110000  1
  H  H86  1  0.53370000  0.58960000  0.21740000  1
  H  H87  1  0.53500000  0.88730000  0.28500000  1
  H  H88  1  0.54660000  0.85370000  0.99310000  1
  H  H89  1  0.55240000  0.95440000  0.07740000  1
  H  H90  1  0.56130000  0.02920000  0.60250000  1
  H  H91  1  0.56350000  0.98110000  0.92870000  1
  H  H92  1  0.56810000  0.29210000  0.53160000  1
  H  H93  1  0.56860000  0.45300000  0.40590000  1
  H  H94  1  0.58110000  0.41330000  0.98310000  1
  H  H95  1  0.58210000  0.54060000  0.98630000  1
  H  H96  1  0.59000000  0.96670000  0.84690000  1
  H  H97  1  0.59140000  0.88500000  0.11520000  1
  H  H98  1  0.59900000  0.11300000  0.98400000  1
  H  H99  1  0.60480000  0.89620000  0.39740000  1
  H  H100  1  0.60790000  0.41610000  0.33670000  1
  H  H101  1  0.61140000  0.91730000  0.63540000  1
  H  H102  1  0.61530000  0.14840000  0.38200000  1
  H  H103  1  0.61710000  0.13450000  0.64070000  1
  H  H104  1  0.63290000  0.36550000  0.14070000  1
  H  H105  1  0.63470000  0.35160000  0.88200000  1
  H  H106  1  0.63860000  0.58270000  0.13540000  1
  H  H107  1  0.64210000  0.08390000  0.83670000  1
  H  H108  1  0.64520000  0.60380000  0.89740000  1
  H  H109  1  0.65100000  0.38700000  0.48400000  1
  H  H110  1  0.65860000  0.61500000  0.61520000  1
  H  H111  1  0.66000000  0.53330000  0.34690000  1
  H  H112  1  0.66790000  0.95940000  0.48630000  1
  H  H113  1  0.66890000  0.08670000  0.48310000  1
  H  H114  1  0.68140000  0.04700000  0.90590000  1
  H  H115  1  0.68190000  0.20790000  0.03160000  1
  H  H116  1  0.68650000  0.51890000  0.42870000  1
  H  H117  1  0.68870000  0.47080000  0.10250000  1
  H  H118  1  0.69760000  0.54560000  0.57740000  1
  H  H119  1  0.70340000  0.64630000  0.49310000  1
  H  H120  1  0.71500000  0.61270000  0.78500000  1
  H  H121  1  0.71630000  0.91040000  0.71740000  1
  H  H122  1  0.72230000  0.32050000  0.36110000  1
  H  H123  1  0.74960000  0.69440000  0.55130000  1
  H  H124  1  0.75040000  0.44870000  0.30560000  1
  H  H125  1  0.77770000  0.63890000  0.67950000  1
  H  H126  1  0.78370000  0.28260000  0.08960000  1
  H  H127  1  0.78500000  0.21500000  0.38730000  1
  H  H128  1  0.79660000  0.50690000  0.35370000  1
  H  H129  1  0.80240000  0.42260000  0.45440000  1
  H  H130  1  0.81130000  0.89750000  0.52920000  1
  H  H131  1  0.81350000  0.57130000  0.48110000  1
  H  H132  1  0.81810000  0.96840000  0.79210000  1
  H  H133  1  0.81860000  0.09410000  0.95300000  1
  H  H134  1  0.83110000  0.51690000  0.91330000  1
  H  H135  1  0.83210000  0.51370000  0.04060000  1
  H  H136  1  0.84000000  0.65310000  0.46670000  1
  H  H137  1  0.84140000  0.38480000  0.38500000  1
  H  H138  1  0.84900000  0.51600000  0.61300000  1
  H  H139  1  0.85480000  0.10260000  0.39620000  1
  H  H140  1  0.85790000  0.16330000  0.91610000  1
  H  H141  1  0.86140000  0.86460000  0.41730000  1
  H  H142  1  0.86530000  0.11800000  0.64840000  1
  H  H143  1  0.86710000  0.85930000  0.63450000  1
  H  H144  1  0.88290000  0.35930000  0.86550000  1
  H  H145  1  0.88470000  0.61800000  0.85160000  1
  H  H146  1  0.88860000  0.36460000  0.08270000  1
  H  H147  1  0.89210000  0.66330000  0.58390000  1
  H  H148  1  0.89520000  0.60260000  0.10380000  1
  H  H149  1  0.90100000  0.01600000  0.88700000  1
  H  H150  1  0.90860000  0.88480000  0.11500000  1
  H  H151  1  0.91000000  0.15310000  0.03330000  1
  H  H152  1  0.91790000  0.01370000  0.45940000  1
  H  H153  1  0.91890000  0.01690000  0.58670000  1
  H  H154  1  0.93140000  0.59410000  0.54700000  1
  H  H155  1  0.93190000  0.46840000  0.70790000  1
  H  H156  1  0.93650000  0.07130000  0.01890000  1
  H  H157  1  0.93870000  0.39750000  0.97080000  1
  H  H158  1  0.94760000  0.92260000  0.04560000  1
  H  H159  1  0.95340000  0.00690000  0.14630000  1
  H  H160  1  0.96500000  0.71500000  0.11270000  1
  H  H161  1  0.96630000  0.78260000  0.41040000  1
  H  H162  1  0.97230000  0.13890000  0.82050000  1
  H  H163  1  0.99960000  0.94870000  0.19440000  1
  C  C164  1  0.00710000  0.14470000  0.96730000  1
  C  C165  1  0.01410000  0.52060000  0.77200000  1
  C  C166  1  0.02210000  0.84240000  0.08990000  1
  C  C167  1  0.03730000  0.06240000  0.72360000  1
  C  C168  1  0.04110000  0.09440000  0.90370000  1
  C  C169  1  0.04520000  0.59150000  0.79410000  1
  C  C170  1  0.05000000  0.72030000  0.51530000  1
  C  C171  1  0.05220000  0.45610000  0.79830000  1
  C  C172  1  0.07030000  0.99620000  0.11920000  1
  C  C173  1  0.07330000  0.01900000  0.66740000  1
  C  C174  1  0.07420000  0.93970000  0.67280000  1
  C  C175  1  0.10280000  0.87020000  0.06710000  1
  C  C176  1  0.10450000  0.56020000  0.05520000  1
  C  C177  1  0.10590000  0.97290000  0.36610000  1
  C  C178  1  0.10620000  0.48430000  0.05270000  1
  C  C179  1  0.10750000  0.05280000  0.60620000  1
  C  C180  1  0.11130000  0.59020000  0.84270000  1
  C  C181  1  0.11200000  0.90260000  0.61600000  1
  C  C182  1  0.11530000  0.46000000  0.84590000  1
  C  C183  1  0.11910000  0.56590000  0.61410000  1
  C  C184  1  0.13090000  0.93410000  0.11410000  1
  C  C185  1  0.13470000  0.04000000  0.34590000  1
  C  C186  1  0.13800000  0.59740000  0.11600000  1
  C  C187  1  0.13870000  0.90980000  0.34270000  1
  C  C188  1  0.14250000  0.44720000  0.10620000  1
  C  C189  1  0.14380000  0.01570000  0.55270000  1
  C  C190  1  0.14410000  0.52710000  0.86610000  1
  C  C191  1  0.14550000  0.93980000  0.55520000  1
  C  C192  1  0.14720000  0.62980000  0.56710000  1
  C  C193  1  0.17580000  0.56030000  0.17280000  1
  C  C194  1  0.17670000  0.48100000  0.16740000  1
  C  C195  1  0.17970000  0.50380000  0.61920000  1
  C  C196  1  0.19780000  0.04390000  0.29830000  1
  C  C197  1  0.20000000  0.77970000  0.01530000  1
  C  C198  1  0.20480000  0.90850000  0.29410000  1
  C  C199  1  0.20890000  0.40560000  0.40370000  1
  C  C200  1  0.21270000  0.43760000  0.22360000  1
  C  C201  1  0.22790000  0.65760000  0.58990000  1
  C  C202  1  0.23590000  0.97940000  0.27200000  1
  C  C203  1  0.24290000  0.35530000  0.46730000  1
  C  C204  1  0.25710000  0.53270000  0.64470000  1
  C  C205  1  0.26410000  0.72800000  0.02060000  1
  C  C206  1  0.27210000  0.41010000  0.34240000  1
  C  C207  1  0.28730000  0.77640000  0.56240000  1
  C  C208  1  0.29110000  0.59630000  0.59440000  1
  C  C209  1  0.29520000  0.70590000  0.09150000  1
  C  C210  1  0.30000000  0.98470000  0.22030000  1
  C  C211  1  0.30220000  0.70170000  0.95610000  1
  C  C212  1  0.32030000  0.38080000  0.49620000  1
  C  C213  1  0.32330000  0.83260000  0.51900000  1
  C  C214  1  0.32420000  0.82720000  0.43970000  1
  C  C215  1  0.35280000  0.43290000  0.37020000  1
  C  C216  1  0.35450000  0.44480000  0.06020000  1
  C  C217  1  0.35590000  0.13390000  0.47290000  1
  C  C218  1  0.35620000  0.44730000  0.98430000  1
  C  C219  1  0.35750000  0.89380000  0.55280000  1
  C  C220  1  0.36130000  0.65730000  0.09020000  1
  C  C221  1  0.36200000  0.88400000  0.40260000  1
  C  C222  1  0.36530000  0.65410000  0.96000000  1
  C  C223  1  0.36910000  0.88590000  0.06590000  1
  C  C224  1  0.38090000  0.38590000  0.43410000  1
  C  C225  1  0.38470000  0.15410000  0.54000000  1
  C  C226  1  0.38800000  0.38400000  0.09740000  1
  C  C227  1  0.38870000  0.15730000  0.40980000  1
  C  C228  1  0.39250000  0.39380000  0.94720000  1
  C  C229  1  0.39380000  0.94730000  0.51570000  1
  C  C230  1  0.39410000  0.63390000  0.02710000  1
  C  C231  1  0.39550000  0.94480000  0.43980000  1
  C  C232  1  0.39720000  0.93290000  0.12980000  1
  C  C233  1  0.42580000  0.32720000  0.06030000  1
  C  C234  1  0.42670000  0.33260000  0.98100000  1
  C  C235  1  0.42970000  0.88080000  0.00380000  1
  C  C236  1  0.44780000  0.20170000  0.54390000  1
  C  C237  1  0.45000000  0.48470000  0.27970000  1
  C  C238  1  0.45480000  0.20590000  0.40850000  1
  C  C239  1  0.45890000  0.09630000  0.90560000  1
  C  C240  1  0.46270000  0.27640000  0.93760000  1
  C  C241  1  0.47790000  0.91010000  0.15760000  1
  C  C242  1  0.48590000  0.22800000  0.47940000  1
  C  C243  1  0.49290000  0.03270000  0.85530000  1
  C  C244  1  0.50710000  0.85530000  0.03270000  1
  C  C245  1  0.51410000  0.47940000  0.22800000  1
  C  C246  1  0.52210000  0.15760000  0.91010000  1
  C  C247  1  0.53730000  0.93760000  0.27640000  1
  C  C248  1  0.54110000  0.90560000  0.09630000  1
  C  C249  1  0.54520000  0.40850000  0.20590000  1
  C  C250  1  0.55000000  0.27970000  0.48470000  1
  C  C251  1  0.55220000  0.54390000  0.20170000  1
  C  C252  1  0.57030000  0.00380000  0.88080000  1
  C  C253  1  0.57330000  0.98100000  0.33260000  1
  C  C254  1  0.57420000  0.06030000  0.32720000  1
  C  C255  1  0.60280000  0.12980000  0.93290000  1
  C  C256  1  0.60450000  0.43980000  0.94480000  1
  C  C257  1  0.60590000  0.02710000  0.63390000  1
  C  C258  1  0.60620000  0.51570000  0.94730000  1
  C  C259  1  0.60750000  0.94720000  0.39380000  1
  C  C260  1  0.61130000  0.40980000  0.15730000  1
  C  C261  1  0.61200000  0.09740000  0.38400000  1
  C  C262  1  0.61530000  0.54000000  0.15410000  1
  C  C263  1  0.61910000  0.43410000  0.38590000  1
  C  C264  1  0.63090000  0.06590000  0.88590000  1
  C  C265  1  0.63470000  0.96000000  0.65410000  1
  C  C266  1  0.63800000  0.40260000  0.88400000  1
  C  C267  1  0.63870000  0.09020000  0.65730000  1
  C  C268  1  0.64250000  0.55280000  0.89380000  1
  C  C269  1  0.64380000  0.98430000  0.44730000  1
  C  C270  1  0.64410000  0.47290000  0.13390000  1
  C  C271  1  0.64550000  0.06020000  0.44480000  1
  C  C272  1  0.64720000  0.37020000  0.43290000  1
  C  C273  1  0.67580000  0.43970000  0.82720000  1
  C  C274  1  0.67670000  0.51900000  0.83260000  1
  C  C275  1  0.67970000  0.49620000  0.38080000  1
  C  C276  1  0.69780000  0.95610000  0.70170000  1
  C  C277  1  0.70000000  0.22030000  0.98470000  1
  C  C278  1  0.70480000  0.09150000  0.70590000  1
  C  C279  1  0.70890000  0.59440000  0.59630000  1
  C  C280  1  0.71270000  0.56240000  0.77640000  1
  C  C281  1  0.72790000  0.34240000  0.41010000  1
  C  C282  1  0.73590000  0.02060000  0.72800000  1
  C  C283  1  0.74290000  0.64470000  0.53270000  1
  C  C284  1  0.75710000  0.46730000  0.35530000  1
  C  C285  1  0.76410000  0.27200000  0.97940000  1
  C  C286  1  0.77210000  0.58990000  0.65760000  1
  C  C287  1  0.78730000  0.22360000  0.43760000  1
  C  C288  1  0.79110000  0.40370000  0.40560000  1
  C  C289  1  0.79520000  0.29410000  0.90850000  1
  C  C290  1  0.80000000  0.01530000  0.77970000  1
  C  C291  1  0.80220000  0.29830000  0.04390000  1
  C  C292  1  0.82030000  0.61920000  0.50380000  1
  C  C293  1  0.82330000  0.16740000  0.48100000  1
  C  C294  1  0.82420000  0.17280000  0.56030000  1
  C  C295  1  0.85280000  0.56710000  0.62980000  1
  C  C296  1  0.85450000  0.55520000  0.93980000  1
  C  C297  1  0.85590000  0.86610000  0.52710000  1
  C  C298  1  0.85620000  0.55270000  0.01570000  1
  C  C299  1  0.85750000  0.10620000  0.44720000  1
  C  C300  1  0.86130000  0.34270000  0.90980000  1
  C  C301  1  0.86200000  0.11600000  0.59740000  1
  C  C302  1  0.86530000  0.34590000  0.04000000  1
  C  C303  1  0.86910000  0.11410000  0.93410000  1
  C  C304  1  0.88090000  0.61410000  0.56590000  1
  C  C305  1  0.88470000  0.84590000  0.46000000  1
  C  C306  1  0.88800000  0.61600000  0.90260000  1
  C  C307  1  0.88870000  0.84270000  0.59020000  1
  C  C308  1  0.89250000  0.60620000  0.05280000  1
  C  C309  1  0.89380000  0.05270000  0.48430000  1
  C  C310  1  0.89410000  0.36610000  0.97290000  1
  C  C311  1  0.89550000  0.05520000  0.56020000  1
  C  C312  1  0.89720000  0.06710000  0.87020000  1
  C  C313  1  0.92580000  0.67280000  0.93970000  1
  C  C314  1  0.92670000  0.66740000  0.01900000  1
  C  C315  1  0.92970000  0.11920000  0.99620000  1
  C  C316  1  0.94780000  0.79830000  0.45610000  1
  C  C317  1  0.95000000  0.51530000  0.72030000  1
  C  C318  1  0.95480000  0.79410000  0.59150000  1
  C  C319  1  0.95890000  0.90370000  0.09440000  1
  C  C320  1  0.96270000  0.72360000  0.06240000  1
  C  C321  1  0.97790000  0.08990000  0.84240000  1
  C  C322  1  0.98590000  0.77200000  0.52060000  1
  C  C323  1  0.99290000  0.96730000  0.14470000  1
  N  N324  1  0.00740000  0.03980000  0.78560000  1
  N  N325  1  0.06480000  0.73420000  0.27760000  1
  N  N326  1  0.08550000  0.68880000  0.57080000  1
  N  N327  1  0.16450000  0.81120000  0.07080000  1
  N  N328  1  0.18520000  0.76580000  0.77760000  1
  N  N329  1  0.24260000  0.46020000  0.28560000  1
  N  N330  1  0.25740000  0.71440000  0.53980000  1
  N  N331  1  0.31480000  0.22240000  0.23420000  1
  N  N332  1  0.33550000  0.92920000  0.18880000  1
  N  N333  1  0.41450000  0.42920000  0.31120000  1
  N  N334  1  0.43520000  0.72240000  0.26580000  1
  N  N335  1  0.49260000  0.21440000  0.96020000  1
  N  N336  1  0.50740000  0.96020000  0.21440000  1
  N  N337  1  0.56480000  0.26580000  0.72240000  1
  N  N338  1  0.58550000  0.31120000  0.42920000  1
  N  N339  1  0.66450000  0.18880000  0.92920000  1
  N  N340  1  0.68520000  0.23420000  0.22240000  1
  N  N341  1  0.74260000  0.53980000  0.71440000  1
  N  N342  1  0.75740000  0.28560000  0.46020000  1
  N  N343  1  0.81480000  0.77760000  0.76580000  1
  N  N344  1  0.83550000  0.07080000  0.81120000  1
  N  N345  1  0.91450000  0.57080000  0.68880000  1
  N  N346  1  0.93520000  0.27760000  0.73420000  1
  N  N347  1  0.99260000  0.78560000  0.03980000  1
  Cl  Cl348  1  0.00000000  0.89662000  0.89662000  1
  Cl  Cl349  1  0.25000000  0.60338000  0.39662000  1
  Cl  Cl350  1  0.50000000  0.10338000  0.10338000  1
  Cl  Cl351  1  0.75000000  0.39662000  0.60338000  1
  O  O352  1  0.00870000  0.27570000  0.76260000  1
  O  O353  1  0.01470000  0.65094000  0.76790000  1
  O  O354  1  0.04060000  0.90610000  0.72890000  1
  O  O355  1  0.10130000  0.72070000  0.33750000  1
  O  O356  1  0.10600000  0.73970000  0.22100000  1
  O  O357  1  0.14400000  0.76030000  0.72100000  1
  O  O358  1  0.14870000  0.77930000  0.83750000  1
  O  O359  1  0.20940000  0.59390000  0.22890000  1
  O  O360  1  0.23530000  0.84906000  0.26790000  1
  O  O361  1  0.24130000  0.22430000  0.26260000  1
  O  O362  1  0.25870000  0.73740000  0.77570000  1
  O  O363  1  0.26470000  0.73210000  0.15094000  1
  O  O364  1  0.29060000  0.77110000  0.40610000  1
  O  O365  1  0.35130000  0.16250000  0.22070000  1
  O  O366  1  0.35600000  0.27900000  0.23970000  1
  O  O367  1  0.39400000  0.77900000  0.26030000  1
  O  O368  1  0.39870000  0.66250000  0.27930000  1
  O  O369  1  0.45940000  0.27110000  0.09390000  1
  O  O370  1  0.48530000  0.23210000  0.34906000  1
  O  O371  1  0.49130000  0.23740000  0.72430000  1
  O  O372  1  0.50870000  0.72430000  0.23740000  1
  O  O373  1  0.51470000  0.34906000  0.23210000  1
  O  O374  1  0.54060000  0.09390000  0.27110000  1
  O  O375  1  0.60130000  0.27930000  0.66250000  1
  O  O376  1  0.60600000  0.26030000  0.77900000  1
  O  O377  1  0.64400000  0.23970000  0.27900000  1
  O  O378  1  0.64870000  0.22070000  0.16250000  1
  O  O379  1  0.70940000  0.40610000  0.77110000  1
  O  O380  1  0.73530000  0.15094000  0.73210000  1
  O  O381  1  0.74130000  0.77570000  0.73740000  1
  O  O382  1  0.75870000  0.26260000  0.22430000  1
  O  O383  1  0.76470000  0.26790000  0.84906000  1
  O  O384  1  0.79060000  0.22890000  0.59390000  1
  O  O385  1  0.85130000  0.83750000  0.77930000  1
  O  O386  1  0.85600000  0.72100000  0.76030000  1
  O  O387  1  0.89400000  0.22100000  0.73970000  1
  O  O388  1  0.89870000  0.33750000  0.72070000  1
  O  O389  1  0.95940000  0.72890000  0.90610000  1
  O  O390  1  0.98530000  0.76790000  0.65094000  1
  O  O391  1  0.99130000  0.76260000  0.27570000  1
