# generated using pymatgen
data_Zn19H60C156(NO4)12
_symmetry_space_group_name_H-M   'P 1'
_cell_length_a   37.26550588
_cell_length_b   37.26510000
_cell_length_c   37.26510000
_cell_angle_alpha   109.47100000
_cell_angle_beta   109.47144127
_cell_angle_gamma   109.47144127
_symmetry_Int_Tables_number   1
_chemical_formula_structural   Zn19H60C156(NO4)12
_chemical_formula_sum   'Zn76 H240 C624 N48 O192'
_cell_volume   39837.17466806
_cell_formula_units_Z   4
loop_
 _symmetry_equiv_pos_site_id
 _symmetry_equiv_pos_as_xyz
  1  'x, y, z'
loop_
 _atom_site_type_symbol
 _atom_site_label
 _atom_site_symmetry_multiplicity
 _atom_site_fract_x
 _atom_site_fract_y
 _atom_site_fract_z
 _atom_site_occupancy
  Zn  Zn0  1  0.83386000  0.33386000  0.83386000  1
  Zn  Zn1  1  0.73798000  0.23798000  0.73798000  1
  Zn  Zn2  1  0.26202000  0.76202000  0.26202000  1
  Zn  Zn3  1  0.16614000  0.66614000  0.16614000  1
  Zn  Zn4  1  0.98781000  0.34288000  0.99007000  1
  Zn  Zn5  1  0.98874000  0.24872000  0.99408000  1
  Zn  Zn6  1  0.24872000  0.25998000  0.25464000  1
  Zn  Zn7  1  0.74119000  0.99119000  0.75000000  1
  Zn  Zn8  1  0.34288000  0.35507000  0.35281000  1
  Zn  Zn9  1  0.49408000  0.74536000  0.50534000  1
  Zn  Zn10  1  0.49007000  0.64719000  0.50226000  1
  Zn  Zn11  1  0.84288000  0.49007000  0.98781000  1
  Zn  Zn12  1  0.00993000  0.51219000  0.15712000  1
  Zn  Zn13  1  0.48781000  0.49774000  0.64493000  1
  Zn  Zn14  1  0.33386000  0.50000000  0.50000000  1
  Zn  Zn15  1  1.00000000  1.00000000  0.23798000  1
  Zn  Zn16  1  0.74872000  0.49408000  0.98874000  1
  Zn  Zn17  1  0.75000000  0.74119000  0.99119000  1
  Zn  Zn18  1  0.00592000  0.51126000  0.25128000  1
  Zn  Zn19  1  0.24536000  0.00534000  0.49408000  1
  Zn  Zn20  1  0.99119000  0.25000000  0.24119000  1
  Zn  Zn21  1  0.49119000  0.25000000  0.74119000  1
  Zn  Zn22  1  0.48874000  0.49466000  0.74002000  1
  Zn  Zn23  1  0.74002000  0.98874000  0.99466000  1
  Zn  Zn24  1  0.25000000  0.75881000  0.50881000  1
  Zn  Zn25  1  0.49466000  0.00592000  0.75464000  1
  Zn  Zn26  1  0.23798000  0.50000000  0.50000000  1
  Zn  Zn27  1  0.00000000  0.00000000  0.33386000  1
  Zn  Zn28  1  0.14719000  0.00226000  0.49007000  1
  Zn  Zn29  1  0.64493000  0.98781000  0.99774000  1
  Zn  Zn30  1  0.49774000  0.00993000  0.85281000  1
  Zn  Zn31  1  0.85507000  0.85281000  0.34288000  1
  Zn  Zn32  1  0.75998000  0.75464000  0.24872000  1
  Zn  Zn33  1  0.99774000  0.14493000  0.48781000  1
  Zn  Zn34  1  0.75881000  0.50881000  0.25000000  1
  Zn  Zn35  1  0.99466000  0.24002000  0.48874000  1
  Zn  Zn36  1  0.74536000  0.25128000  0.24002000  1
  Zn  Zn37  1  0.64719000  0.15712000  0.14493000  1
  Zn  Zn38  1  0.50000000  0.73798000  1.00000000  1
  Zn  Zn39  1  0.50000000  0.83386000  0.00000000  1
  Zn  Zn40  1  0.50000000  0.16614000  1.00000000  1
  Zn  Zn41  1  0.50000000  0.26202000  1.00000000  1
  Zn  Zn42  1  0.35281000  0.84288000  0.85507000  1
  Zn  Zn43  1  0.25464000  0.74872000  0.75998000  1
  Zn  Zn44  1  0.00534000  0.75998000  0.51126000  1
  Zn  Zn45  1  0.24119000  0.49119000  0.75000000  1
  Zn  Zn46  1  0.00226000  0.85507000  0.51219000  1
  Zn  Zn47  1  0.24002000  0.24536000  0.75128000  1
  Zn  Zn48  1  0.14493000  0.14719000  0.65712000  1
  Zn  Zn49  1  0.50226000  0.99007000  0.14719000  1
  Zn  Zn50  1  0.35507000  0.01219000  0.00226000  1
  Zn  Zn51  1  0.85281000  0.99774000  0.50993000  1
  Zn  Zn52  1  0.00000000  0.00000000  0.66614000  1
  Zn  Zn53  1  0.76202000  0.50000000  0.50000000  1
  Zn  Zn54  1  0.50534000  0.99408000  0.24536000  1
  Zn  Zn55  1  0.75000000  0.24119000  0.49119000  1
  Zn  Zn56  1  0.25998000  0.01126000  0.00534000  1
  Zn  Zn57  1  0.51126000  0.50534000  0.25998000  1
  Zn  Zn58  1  0.50881000  0.75000000  0.25881000  1
  Zn  Zn59  1  0.00881000  0.75000000  0.75881000  1
  Zn  Zn60  1  0.75464000  0.99466000  0.50592000  1
  Zn  Zn61  1  0.99408000  0.48874000  0.74872000  1
  Zn  Zn62  1  0.25000000  0.25881000  0.00881000  1
  Zn  Zn63  1  0.25128000  0.50592000  0.01126000  1
  Zn  Zn64  1  1.00000000  1.00000000  0.76202000  1
  Zn  Zn65  1  0.66614000  0.50000000  0.50000000  1
  Zn  Zn66  1  0.51219000  0.50226000  0.35507000  1
  Zn  Zn67  1  0.99007000  0.48781000  0.84288000  1
  Zn  Zn68  1  0.15712000  0.50993000  0.01219000  1
  Zn  Zn69  1  0.50993000  0.35281000  0.49774000  1
  Zn  Zn70  1  0.50592000  0.25464000  0.49466000  1
  Zn  Zn71  1  0.65712000  0.64493000  0.64719000  1
  Zn  Zn72  1  0.25881000  0.00881000  0.25000000  1
  Zn  Zn73  1  0.75128000  0.74002000  0.74536000  1
  Zn  Zn74  1  0.01126000  0.75128000  0.00592000  1
  Zn  Zn75  1  0.01219000  0.65712000  0.00993000  1
  H  H76  1  0.60530000  0.71100000  0.60830000  1
  H  H77  1  0.87460000  0.27380000  0.87980000  1
  H  H78  1  0.77420000  0.15410000  0.77950000  1
  H  H79  1  0.70830000  0.82530000  0.71380000  1
  H  H80  1  0.61190000  0.82420000  0.62170000  1
  H  H81  1  0.86970000  0.16320000  0.88010000  1
  H  H82  1  0.28270000  0.15460000  0.36170000  1
  H  H83  1  0.14270000  0.86130000  0.22360000  1
  H  H84  1  0.77020000  0.13740000  0.86400000  1
  H  H85  1  0.63060000  0.84580000  0.72720000  1
  H  H86  1  0.77380000  0.37980000  0.87460000  1
  H  H87  1  0.89430000  0.60530000  0.99700000  1
  H  H88  1  0.60570000  0.60270000  0.71100000  1
  H  H89  1  0.49700000  0.39170000  0.60270000  1
  H  H90  1  0.12020000  0.62540000  0.22620000  1
  H  H91  1  0.99700000  0.39430000  0.10530000  1
  H  H92  1  0.88300000  0.70830000  0.99450000  1
  H  H93  1  0.71230000  0.70250000  0.82420000  1
  H  H94  1  0.49450000  0.28620000  0.61150000  1
  H  H95  1  0.78480000  0.63060000  0.90340000  1
  H  H96  1  0.16320000  0.29350000  0.28310000  1
  H  H97  1  0.65410000  0.27950000  0.77420000  1
  H  H98  1  0.27380000  0.39920000  0.39400000  1
  H  H99  1  0.99020000  0.28770000  0.11190000  1
  H  H100  1  0.37980000  0.60600000  0.50520000  1
  H  H101  1  0.22050000  0.72580000  0.34590000  1
  H  H102  1  0.57900000  0.36170000  0.70710000  1
  H  H103  1  0.38010000  0.71690000  0.51040000  1
  H  H104  1  0.71520000  0.61860000  0.84580000  1
  H  H105  1  0.63740000  0.36400000  0.77020000  1
  H  H106  1  0.13740000  0.36720000  0.27340000  1
  H  H107  1  0.22660000  0.09380000  0.36400000  1
  H  H108  1  0.22360000  0.64270000  0.36130000  1
  H  H109  1  0.07900000  0.37190000  0.21730000  1
  H  H110  1  0.13770000  0.91910000  0.27640000  1
  H  H111  1  0.27640000  0.63770000  0.41910000  1
  H  H112  1  0.12540000  0.00530000  0.27950000  1
  H  H113  1  0.61860000  0.90340000  0.77280000  1
  H  H114  1  0.70710000  0.07900000  0.86170000  1
  H  H115  1  0.21690000  0.01040000  0.38010000  1
  H  H116  1  0.61150000  0.99450000  0.78620000  1
  H  H117  1  0.70250000  0.99020000  0.87830000  1
  H  H118  1  0.78770000  0.61190000  0.99020000  1
  H  H119  1  0.66320000  0.38010000  0.86970000  1
  H  H120  1  0.87190000  0.71730000  0.07900000  1
  H  H121  1  0.61700000  0.61150000  0.82530000  1
  H  H122  1  0.89470000  0.50300000  0.10570000  1
  H  H123  1  0.49020000  0.37830000  0.70250000  1
  H  H124  1  0.99450000  0.38300000  0.20830000  1
  H  H125  1  0.40340000  0.27280000  0.61860000  1
  H  H126  1  0.11990000  0.63030000  0.33680000  1
  H  H127  1  0.62810000  0.70710000  0.84540000  1
  H  H128  1  0.63870000  0.27640000  0.85730000  1
  H  H129  1  0.15410000  0.37990000  0.37460000  1
  H  H130  1  0.13870000  0.28140000  0.36230000  1
  H  H131  1  0.27950000  0.62540000  0.50530000  1
  H  H132  1  0.37460000  0.49480000  0.60080000  1
  H  H133  1  0.13600000  0.72980000  0.36260000  1
  H  H134  1  0.90340000  0.28480000  0.13060000  1
  H  H135  1  0.36400000  0.72660000  0.59380000  1
  H  H136  1  0.86720000  0.77340000  0.13740000  1
  H  H137  1  0.84580000  0.21520000  0.11860000  1
  H  H138  1  0.63280000  0.77020000  0.90620000  1
  H  H139  1  0.10600000  0.00520000  0.37980000  1
  H  H140  1  0.87990000  0.87460000  0.15410000  1
  H  H141  1  0.08090000  0.21860000  0.35730000  1
  H  H142  1  0.99470000  0.12010000  0.27420000  1
  H  H143  1  0.58090000  0.22360000  0.86230000  1
  H  H144  1  0.13830000  0.79290000  0.42100000  1
  H  H145  1  0.70650000  0.86970000  0.98960000  1
  H  H146  1  0.34580000  0.22720000  0.63060000  1
  H  H147  1  0.82530000  0.11700000  0.11150000  1
  H  H148  1  0.32420000  0.12170000  0.61190000  1
  H  H149  1  0.60270000  0.99700000  0.89170000  1
  H  H150  1  0.21380000  0.88850000  0.50550000  1
  H  H151  1  0.36170000  0.78270000  0.65460000  1
  H  H152  1  0.48960000  0.11990000  0.78310000  1
  H  H153  1  0.37830000  0.88810000  0.67580000  1
  H  H154  1  0.88810000  0.50980000  0.21230000  1
  H  H155  1  0.79170000  0.50550000  0.11700000  1
  H  H156  1  0.36970000  0.48960000  0.70650000  1
  H  H157  1  0.78270000  0.42100000  0.12810000  1
  H  H158  1  0.86940000  0.59660000  0.21520000  1
  H  H159  1  0.27420000  0.49470000  0.62010000  1
  H  H160  1  0.78140000  0.86230000  0.13870000  1
  H  H161  1  0.35730000  0.58090000  0.71860000  1
  H  H162  1  0.84540000  0.12810000  0.20710000  1
  H  H163  1  0.71860000  0.85730000  0.08090000  1
  H  H164  1  0.27020000  0.40620000  0.63280000  1
  H  H165  1  0.90620000  0.13280000  0.27020000  1
  H  H166  1  0.40620000  0.13600000  0.77340000  1
  H  H167  1  0.22720000  0.88140000  0.59660000  1
  H  H168  1  0.79350000  0.78310000  0.16320000  1
  H  H169  1  0.34540000  0.13830000  0.71730000  1
  H  H170  1  0.62010000  0.77420000  0.99470000  1
  H  H171  1  0.89920000  0.89400000  0.27380000  1
  H  H172  1  0.82420000  0.21230000  0.20250000  1
  H  H173  1  0.99480000  0.10080000  0.37460000  1
  H  H174  1  0.49470000  0.22050000  0.87460000  1
  H  H175  1  0.98960000  0.20650000  0.36970000  1
  H  H176  1  0.27280000  0.86940000  0.65420000  1
  H  H177  1  0.32530000  0.21380000  0.70830000  1
  H  H178  1  0.12170000  0.79750000  0.50980000  1
  H  H179  1  0.28620000  0.79170000  0.67470000  1
  H  H180  1  0.71100000  0.10570000  0.10270000  1
  H  H181  1  0.60080000  0.87460000  0.99480000  1
  H  H182  1  0.21100000  0.10830000  0.60530000  1
  H  H183  1  0.10830000  0.89730000  0.50300000  1
  H  H184  1  0.39170000  0.89470000  0.78900000  1
  H  H185  1  0.49480000  0.12020000  0.89400000  1
  H  H186  1  0.88140000  0.65420000  0.28480000  1
  H  H187  1  0.72660000  0.36260000  0.13280000  1
  H  H188  1  0.36230000  0.63870000  0.78140000  1
  H  H189  1  0.20710000  0.34540000  0.62810000  1
  H  H190  1  0.71690000  0.33680000  0.20650000  1
  H  H191  1  0.79750000  0.67580000  0.28770000  1
  H  H192  1  0.88850000  0.67470000  0.38300000  1
  H  H193  1  0.62540000  0.34590000  0.12010000  1
  H  H194  1  0.60600000  0.22620000  0.10080000  1
  H  H195  1  0.89730000  0.78900000  0.39430000  1
  H  H196  1  0.10270000  0.21100000  0.60570000  1
  H  H197  1  0.39400000  0.77380000  0.89920000  1
  H  H198  1  0.37460000  0.65410000  0.87990000  1
  H  H199  1  0.11150000  0.32530000  0.61700000  1
  H  H200  1  0.20250000  0.32420000  0.71230000  1
  H  H201  1  0.28310000  0.66320000  0.79350000  1
  H  H202  1  0.79290000  0.65460000  0.37190000  1
  H  H203  1  0.63770000  0.36130000  0.21860000  1
  H  H204  1  0.27340000  0.63740000  0.86720000  1
  H  H205  1  0.11860000  0.34580000  0.71520000  1
  H  H206  1  0.50520000  0.87980000  0.10600000  1
  H  H207  1  0.60830000  0.10530000  0.21100000  1
  H  H208  1  0.89170000  0.10270000  0.49700000  1
  H  H209  1  0.78900000  0.89170000  0.39470000  1
  H  H210  1  0.39920000  0.12540000  0.00520000  1
  H  H211  1  0.28900000  0.89430000  0.89730000  1
  H  H212  1  0.71380000  0.20830000  0.32530000  1
  H  H213  1  0.87830000  0.20250000  0.49020000  1
  H  H214  1  0.67470000  0.78620000  0.29170000  1
  H  H215  1  0.72720000  0.13060000  0.34580000  1
  H  H216  1  0.01040000  0.79350000  0.63030000  1
  H  H217  1  0.50530000  0.77950000  0.12540000  1
  H  H218  1  0.00520000  0.89920000  0.62540000  1
  H  H219  1  0.17580000  0.78770000  0.79750000  1
  H  H220  1  0.10080000  0.10600000  0.72620000  1
  H  H221  1  0.37990000  0.22580000  0.00530000  1
  H  H222  1  0.65460000  0.86170000  0.28270000  1
  H  H223  1  0.20650000  0.21690000  0.83680000  1
  H  H224  1  0.77280000  0.11860000  0.40340000  1
  H  H225  1  0.59380000  0.86400000  0.22660000  1
  H  H226  1  0.09380000  0.86720000  0.72980000  1
  H  H227  1  0.72980000  0.59380000  0.36720000  1
  H  H228  1  0.28140000  0.14270000  0.91910000  1
  H  H229  1  0.15460000  0.87190000  0.79290000  1
  H  H230  1  0.64270000  0.41910000  0.28140000  1
  H  H231  1  0.21860000  0.13770000  0.86130000  1
  H  H232  1  0.72580000  0.50530000  0.37990000  1
  H  H233  1  0.13060000  0.40340000  0.78480000  1
  H  H234  1  0.21730000  0.57900000  0.87190000  1
  H  H235  1  0.63030000  0.51040000  0.29350000  1
  H  H236  1  0.20830000  0.49450000  0.88300000  1
  H  H237  1  0.11190000  0.49020000  0.78770000  1
  H  H238  1  0.62170000  0.11190000  0.32420000  1
  H  H239  1  0.51040000  0.88010000  0.21690000  1
  H  H240  1  0.63830000  0.21730000  0.34540000  1
  H  H241  1  0.78620000  0.11150000  0.49450000  1
  H  H242  1  0.39730000  0.00300000  0.10830000  1
  H  H243  1  0.67580000  0.87830000  0.38810000  1
  H  H244  1  0.17470000  0.88300000  0.88850000  1
  H  H245  1  0.65420000  0.77280000  0.36940000  1
  H  H246  1  0.29350000  0.13030000  0.01040000  1
  H  H247  1  0.86170000  0.20710000  0.57900000  1
  H  H248  1  0.41910000  0.77640000  0.13770000  1
  H  H249  1  0.00530000  0.87990000  0.72580000  1
  H  H250  1  0.91910000  0.78140000  0.64270000  1
  H  H251  1  0.12010000  0.12540000  0.84590000  1
  H  H252  1  0.89400000  0.99480000  0.62020000  1
  H  H253  1  0.36720000  0.22980000  0.09380000  1
  H  H254  1  0.15420000  0.78480000  0.88140000  1
  H  H255  1  0.13280000  0.22660000  0.86260000  1
  H  H256  1  0.63600000  0.27340000  0.40620000  1
  H  H257  1  0.09660000  0.71520000  0.86940000  1
  H  H258  1  0.86400000  0.27020000  0.63740000  1
  H  H259  1  0.62540000  0.50520000  0.39920000  1
  H  H260  1  0.72050000  0.37460000  0.49470000  1
  H  H261  1  0.86130000  0.71860000  0.63770000  1
  H  H262  1  0.84590000  0.62010000  0.62540000  1
  H  H263  1  0.36130000  0.72360000  0.14270000  1
  H  H264  1  0.37190000  0.29290000  0.15460000  1
  H  H265  1  0.88010000  0.36970000  0.66320000  1
  H  H266  1  0.59660000  0.72720000  0.38140000  1
  H  H267  1  0.00550000  0.61700000  0.79170000  1
  H  H268  1  0.50980000  0.62170000  0.29750000  1
  H  H269  1  0.10530000  0.49700000  0.89430000  1
  H  H270  1  0.38300000  0.38850000  0.17470000  1
  H  H271  1  0.12810000  0.28270000  0.92100000  1
  H  H272  1  0.33680000  0.61990000  0.13030000  1
  H  H273  1  0.21230000  0.38810000  0.00980000  1
  H  H274  1  0.29750000  0.00980000  0.12170000  1
  H  H275  1  0.38850000  0.00550000  0.21380000  1
  H  H276  1  0.78310000  0.98960000  0.61990000  1
  H  H277  1  0.29290000  0.92100000  0.13830000  1
  H  H278  1  0.38140000  0.09660000  0.22720000  1
  H  H279  1  0.87460000  0.99470000  0.72050000  1
  H  H280  1  0.72360000  0.36230000  0.58090000  1
  H  H281  1  0.86230000  0.08090000  0.72360000  1
  H  H282  1  0.92100000  0.62810000  0.78270000  1
  H  H283  1  0.77640000  0.35730000  0.63870000  1
  H  H284  1  0.77340000  0.90620000  0.63600000  1
  H  H285  1  0.86260000  0.63280000  0.72660000  1
  H  H286  1  0.36260000  0.63600000  0.22980000  1
  H  H287  1  0.28480000  0.38140000  0.15420000  1
  H  H288  1  0.61990000  0.28310000  0.48960000  1
  H  H289  1  0.42100000  0.63830000  0.29290000  1
  H  H290  1  0.77950000  0.27420000  0.65410000  1
  H  H291  1  0.62020000  0.39400000  0.49480000  1
  H  H292  1  0.00980000  0.71230000  0.88810000  1
  H  H293  1  0.72620000  0.60080000  0.60600000  1
  H  H294  1  0.34590000  0.72050000  0.22580000  1
  H  H295  1  0.83680000  0.70650000  0.71690000  1
  H  H296  1  0.21520000  0.36940000  0.09660000  1
  H  H297  1  0.50550000  0.71380000  0.38850000  1
  H  H298  1  0.28770000  0.29750000  0.17580000  1
  H  H299  1  0.11700000  0.29170000  0.00550000  1
  H  H300  1  0.00300000  0.60570000  0.89470000  1
  H  H301  1  0.87980000  0.37460000  0.77380000  1
  H  H302  1  0.50300000  0.60830000  0.39730000  1
  H  H303  1  0.39430000  0.39730000  0.28900000  1
  H  H304  1  0.10570000  0.39470000  0.00300000  1
  H  H305  1  0.22620000  0.62020000  0.12540000  1
  H  H306  1  0.36940000  0.15420000  0.27280000  1
  H  H307  1  0.22980000  0.86260000  0.13600000  1
  H  H308  1  0.85730000  0.13870000  0.77640000  1
  H  H309  1  0.71730000  0.84540000  0.63830000  1
  H  H310  1  0.13030000  0.83680000  0.11990000  1
  H  H311  1  0.38810000  0.17580000  0.37830000  1
  H  H312  1  0.29170000  0.17470000  0.28620000  1
  H  H313  1  0.22580000  0.84590000  0.22050000  1
  H  H314  1  0.12540000  0.72620000  0.12020000  1
  H  H315  1  0.39470000  0.28900000  0.39170000  1
  C  C316  1  0.66030000  0.76340000  0.66230000  1
  C  C317  1  0.19420000  0.76100000  0.19720000  1
  C  C318  1  0.82220000  0.21630000  0.82550000  1
  C  C319  1  0.92260000  0.24960000  0.92700000  1
  C  C320  1  0.62010000  0.74220000  0.62470000  1
  C  C321  1  0.86080000  0.24270000  0.86590000  1
  C  C322  1  0.68140000  0.80870000  0.68670000  1
  C  C323  1  0.80090000  0.17170000  0.80680000  1
  C  C324  1  0.87850000  0.22220000  0.88550000  1
  C  C325  1  0.31850000  0.26190000  0.32560000  1
  C  C326  1  0.66090000  0.82820000  0.66890000  1
  C  C327  1  0.79440000  0.10300000  0.80260000  1
  C  C328  1  0.60060000  0.76210000  0.60950000  1
  C  C329  1  0.62330000  0.80820000  0.63230000  1
  C  C330  1  0.85730000  0.17680000  0.86650000  1
  C  C331  1  0.81810000  0.15200000  0.82750000  1
  C  C332  1  0.68510000  0.87780000  0.69470000  1
  C  C333  1  0.55630000  0.73790000  0.56940000  1
  C  C334  1  0.19590000  0.91800000  0.22690000  1
  C  C335  1  0.28100000  0.10090000  0.31210000  1
  C  C336  1  0.76410000  0.08230000  0.81240000  1
  C  C337  1  0.67920000  0.89980000  0.72880000  1
  C  C338  1  0.68160000  0.66850000  0.73790000  1
  C  C339  1  0.50710000  0.32560000  0.56370000  1
  C  C340  1  0.94340000  0.68150000  0.00710000  1
  C  C341  1  0.19720000  0.69420000  0.26100000  1
  C  C342  1  0.73900000  0.30280000  0.80580000  1
  C  C343  1  0.98690000  0.31840000  0.05630000  1
  C  C344  1  0.24960000  0.32700000  0.32260000  1
  C  C345  1  0.27080000  0.12390000  0.34490000  1
  C  C346  1  0.15920000  0.89220000  0.23580000  1
  C  C347  1  0.42700000  0.67740000  0.50440000  1
  C  C348  1  0.19110000  0.96900000  0.27310000  1
  C  C349  1  0.23010000  0.04830000  0.31240000  1
  C  C350  1  0.75560000  0.10640000  0.84560000  1
  C  C351  1  0.64530000  0.87630000  0.73720000  1
  C  C352  1  0.67100000  0.95040000  0.77120000  1
  C  C353  1  0.66150000  0.65260000  0.76210000  1
  C  C354  1  0.71120000  0.03110000  0.81210000  1
  C  C355  1  0.89690000  0.66030000  0.99800000  1
  C  C356  1  0.19960000  0.00820000  0.30260000  1
  C  C357  1  0.49800000  0.33770000  0.60110000  1
  C  C358  1  0.71630000  0.32550000  0.82220000  1
  C  C359  1  0.23920000  0.09000000  0.34560000  1
  C  C360  1  0.15640000  0.92340000  0.26420000  1
  C  C361  1  0.17450000  0.67780000  0.28370000  1
  C  C362  1  0.99110000  0.33850000  0.10060000  1
  C  C363  1  0.22220000  0.34370000  0.33670000  1
  C  C364  1  0.87790000  0.62010000  0.99540000  1
  C  C365  1  0.74270000  0.36590000  0.86080000  1
  C  C366  1  0.62210000  0.61750000  0.74220000  1
  C  C367  1  0.38550000  0.66330000  0.50700000  1
  C  C368  1  0.87270000  0.68140000  0.99470000  1
  C  C369  1  0.49540000  0.37530000  0.61750000  1
  C  C370  1  0.68310000  0.99040000  0.80530000  1
  C  C371  1  0.13410000  0.63920000  0.25730000  1
  C  C372  1  0.68490000  0.67590000  0.80820000  1
  C  C373  1  0.63910000  0.90810000  0.76280000  1
  C  C374  1  0.72100000  0.07410000  0.84490000  1
  C  C375  1  0.99540000  0.37790000  0.12010000  1
  C  C376  1  0.49470000  0.31330000  0.62200000  1
  C  C377  1  0.67170000  0.30680000  0.80090000  1
  C  C378  1  0.99100000  0.31510000  0.12330000  1
  C  C379  1  0.17680000  0.31950000  0.31030000  1
  C  C380  1  0.24270000  0.38190000  0.37680000  1
  C  C381  1  0.19320000  0.69910000  0.32830000  1
  C  C382  1  0.76900000  0.64530000  0.90810000  1
  C  C383  1  0.36590000  0.62320000  0.50510000  1
  C  C384  1  0.36650000  0.68970000  0.50920000  1
  C  C385  1  0.73100000  0.63910000  0.87630000  1
  C  C386  1  0.57410000  0.34490000  0.72100000  1
  C  C387  1  0.60640000  0.34560000  0.75560000  1
  C  C388  1  0.17550000  0.00940000  0.32750000  1
  C  C389  1  0.83850000  0.60060000  0.99110000  1
  C  C390  1  0.10640000  0.35080000  0.26080000  1
  C  C391  1  0.07410000  0.35310000  0.22920000  1
  C  C392  1  0.72220000  0.38550000  0.87850000  1
  C  C393  1  0.23580000  0.65920000  0.39220000  1
  C  C394  1  0.26420000  0.65640000  0.42340000  1
  C  C395  1  0.83270000  0.66090000  0.99200000  1
  C  C396  1  0.60310000  0.60110000  0.76340000  1
  C  C397  1  0.66730000  0.65930000  0.82820000  1
  C  C398  1  0.49110000  0.39050000  0.65260000  1
  C  C399  1  0.99800000  0.39690000  0.16030000  1
  C  C400  1  0.11450000  0.62150000  0.27780000  1
  C  C401  1  0.65200000  0.32750000  0.81810000  1
  C  C402  1  0.49200000  0.33110000  0.65930000  1
  C  C403  1  0.81840000  0.55630000  0.98690000  1
  C  C404  1  0.99200000  0.33270000  0.16090000  1
  C  C405  1  0.77940000  0.67920000  0.95040000  1
  C  C406  1  0.13510000  0.00590000  0.30680000  1
  C  C407  1  0.65930000  0.99200000  0.83110000  1
  C  C408  1  0.15200000  0.33390000  0.32450000  1
  C  C409  1  0.74960000  0.42700000  0.92260000  1
  C  C410  1  0.00710000  0.44340000  0.18150000  1
  C  C411  1  0.21630000  0.39410000  0.39080000  1
  C  C412  1  0.17250000  0.68190000  0.34800000  1
  C  C413  1  0.81510000  0.62330000  0.99100000  1
  C  C414  1  0.18970000  0.00920000  0.36650000  1
  C  C415  1  0.07300000  0.57740000  0.25040000  1
  C  C416  1  0.32550000  0.60920000  0.50330000  1
  C  C417  1  0.72060000  0.67100000  0.89980000  1
  C  C418  1  0.53110000  0.31210000  0.71120000  1
  C  C419  1  0.67680000  0.36650000  0.85730000  1
  C  C420  1  0.62730000  0.62200000  0.80870000  1
  C  C421  1  0.55660000  0.56370000  0.73810000  1
  C  C422  1  0.48690000  0.43060000  0.66850000  1
  C  C423  1  0.58230000  0.31240000  0.76410000  1
  C  C424  1  0.32750000  0.67550000  0.50940000  1
  C  C425  1  0.80730000  0.68510000  0.99040000  1
  C  C426  1  0.49100000  0.36770000  0.67590000  1
  C  C427  1  0.69270000  0.68310000  0.87780000  1
  C  C428  1  0.99470000  0.37270000  0.18140000  1
  C  C429  1  0.08230000  0.31820000  0.26990000  1
  C  C430  1  0.03110000  0.31990000  0.21900000  1
  C  C431  1  0.13350000  0.64270000  0.32320000  1
  C  C432  1  0.22690000  0.69590000  0.41800000  1
  C  C433  1  0.62200000  0.99470000  0.81330000  1
  C  C434  1  0.60300000  0.30260000  0.79440000  1
  C  C435  1  0.67590000  0.99100000  0.86770000  1
  C  C436  1  0.49040000  0.30530000  0.68310000  1
  C  C437  1  0.17170000  0.37080000  0.36490000  1
  C  C438  1  0.30280000  0.56380000  0.49700000  1
  C  C439  1  0.99040000  0.30730000  0.18510000  1
  C  C440  1  0.27310000  0.69110000  0.46900000  1
  C  C441  1  0.23900000  0.43320000  0.43620000  1
  C  C442  1  0.10300000  0.30860000  0.30040000  1
  C  C443  1  0.30680000  0.63510000  0.50590000  1
  C  C444  1  0.19740000  0.70560000  0.39700000  1
  C  C445  1  0.30260000  0.69960000  0.50820000  1
  C  C446  1  0.81990000  0.71900000  0.03110000  1
  C  C447  1  0.10920000  0.00330000  0.32550000  1
  C  C448  1  0.68010000  0.71120000  0.89910000  1
  C  C449  1  0.45040000  0.27120000  0.67100000  1
  C  C450  1  0.85310000  0.72920000  0.07410000  1
  C  C451  1  0.58200000  0.27310000  0.80410000  1
  C  C452  1  0.16330000  0.00700000  0.38550000  1
  C  C453  1  0.08200000  0.27790000  0.30890000  1
  C  C454  1  0.95040000  0.27940000  0.17920000  1
  C  C455  1  0.64690000  0.72100000  0.87610000  1
  C  C456  1  0.18760000  0.73590000  0.41770000  1
  C  C457  1  0.40810000  0.26280000  0.63910000  1
  C  C458  1  0.60780000  0.26420000  0.84080000  1
  C  C459  1  0.10780000  0.26700000  0.34360000  1
  C  C460  1  0.31240000  0.73010000  0.54830000  1
  C  C461  1  0.60110000  0.99800000  0.83770000  1
  C  C462  1  0.90810000  0.26900000  0.14530000  1
  C  C463  1  0.65260000  0.99110000  0.89050000  1
  C  C464  1  0.94370000  0.51310000  0.18160000  1
  C  C465  1  0.81850000  0.49290000  0.05660000  1
  C  C466  1  0.06380000  0.99700000  0.30280000  1
  C  C467  1  0.15440000  0.74440000  0.39360000  1
  C  C468  1  0.87990000  0.50460000  0.12210000  1
  C  C469  1  0.12320000  0.00510000  0.36590000  1
  C  C470  1  0.34560000  0.73920000  0.59000000  1
  C  C471  1  0.17740000  0.00440000  0.42700000  1
  C  C472  1  0.42260000  0.49560000  0.67300000  1
  C  C473  1  0.85080000  0.76080000  0.10640000  1
  C  C474  1  0.36080000  0.49490000  0.61810000  1
  C  C475  1  0.61750000  0.99540000  0.87530000  1
  C  C476  1  0.64920000  0.75560000  0.91000000  1
  C  C477  1  0.30580000  0.50300000  0.56680000  1
  C  C478  1  0.56370000  0.00710000  0.82560000  1
  C  C479  1  0.66850000  0.98690000  0.93060000  1
  C  C480  1  0.89940000  0.50890000  0.16150000  1
  C  C481  1  0.87630000  0.23100000  0.13910000  1
  C  C482  1  0.83970000  0.50200000  0.10310000  1
  C  C483  1  0.81820000  0.76990000  0.08230000  1
  C  C484  1  0.07660000  0.23300000  0.34080000  1
  C  C485  1  0.57660000  0.23580000  0.84360000  1
  C  C486  1  0.37630000  0.23720000  0.64530000  1
  C  C487  1  0.68180000  0.76410000  0.95170000  1
  C  C488  1  0.15510000  0.77900000  0.42590000  1
  C  C489  1  0.89980000  0.22060000  0.17100000  1
  C  C490  1  0.03100000  0.22210000  0.30410000  1
  C  C491  1  0.37850000  0.49300000  0.65630000  1
  C  C492  1  0.53100000  0.22690000  0.80890000  1
  C  C493  1  0.34490000  0.77080000  0.62390000  1
  C  C494  1  0.39980000  0.22880000  0.67920000  1
  C  C495  1  0.18790000  0.78880000  0.46890000  1
  C  C496  1  0.32220000  0.49670000  0.60590000  1
  C  C497  1  0.31210000  0.78100000  0.60090000  1
  C  C498  1  0.80860000  0.80040000  0.10300000  1
  C  C499  1  0.69140000  0.79440000  0.99180000  1
  C  C500  1  0.87080000  0.86490000  0.17170000  1
  C  C501  1  0.99180000  0.19140000  0.29440000  1
  C  C502  1  0.00300000  0.06680000  0.30580000  1
  C  C503  1  0.77790000  0.80890000  0.08200000  1
  C  C504  1  0.87780000  0.19270000  0.18310000  1
  C  C505  1  0.93320000  0.93620000  0.23900000  1
  C  C506  1  0.99410000  0.12920000  0.30090000  1
  C  C507  1  0.37780000  0.19470000  0.68510000  1
  C  C508  1  0.87670000  0.50900000  0.18490000  1
  C  C509  1  0.49180000  0.19740000  0.80040000  1
  C  C510  1  0.81860000  0.50530000  0.12730000  1
  C  C511  1  0.72210000  0.80410000  0.03100000  1
  C  C512  1  0.68050000  0.85730000  0.99080000  1
  C  C513  1  0.89910000  0.18010000  0.21120000  1
  C  C514  1  0.95170000  0.18180000  0.26410000  1
  C  C515  1  0.80870000  0.12730000  0.12200000  1
  C  C516  1  0.19470000  0.81690000  0.50960000  1
  C  C517  1  0.30820000  0.13230000  0.62330000  1
  C  C518  1  0.30530000  0.81490000  0.62220000  1
  C  C519  1  0.83390000  0.82450000  0.15200000  1
  C  C520  1  0.45170000  0.18760000  0.76990000  1
  C  C521  1  0.23790000  0.06940000  0.55630000  1
  C  C522  1  0.17440000  0.93630000  0.49290000  1
  C  C523  1  0.18670000  0.87800000  0.50530000  1
  C  C524  1  0.49080000  0.13350000  0.81030000  1
  C  C525  1  0.39910000  0.18790000  0.71900000  1
  C  C526  1  0.22880000  0.82900000  0.54960000  1
  C  C527  1  0.89410000  0.89080000  0.21630000  1
  C  C528  1  0.67300000  0.92260000  0.99560000  1
  C  C529  1  0.35730000  0.49080000  0.68050000  1
  C  C530  1  0.36770000  0.87670000  0.69180000  1
  C  C531  1  0.66610000  0.81810000  0.99060000  1
  C  C532  1  0.99670000  0.10590000  0.32220000  1
  C  C533  1  0.73810000  0.05660000  0.06370000  1
  C  C534  1  0.49560000  0.07300000  0.82260000  1
  C  C535  1  0.99060000  0.16610000  0.31810000  1
  C  C536  1  0.83910000  0.50800000  0.16730000  1
  C  C537  1  0.30090000  0.49410000  0.62920000  1
  C  C538  1  0.27120000  0.82080000  0.60020000  1
  C  C539  1  0.82820000  0.16730000  0.15930000  1
  C  C540  1  0.43060000  0.94370000  0.76210000  1
  C  C541  1  0.32820000  0.16890000  0.66090000  1
  C  C542  1  0.49060000  0.17250000  0.82450000  1
  C  C543  1  0.65630000  0.87850000  0.99300000  1
  C  C544  1  0.76340000  0.10310000  0.10110000  1
  C  C545  1  0.26210000  0.10950000  0.60060000  1
  C  C546  1  0.16890000  0.84070000  0.50800000  1
  C  C547  1  0.16230000  0.89890000  0.50200000  1
  C  C548  1  0.33110000  0.83910000  0.67180000  1
  C  C549  1  0.76700000  0.84360000  0.10780000  1
  C  C550  1  0.73300000  0.84080000  0.07660000  1
  C  C551  1  0.49300000  0.11450000  0.83670000  1
  C  C552  1  0.87610000  0.14690000  0.22100000  1
  C  C553  1  0.91000000  0.14920000  0.25560000  1
  C  C554  1  0.39050000  0.89940000  0.73790000  1
  C  C555  1  0.31810000  0.49060000  0.66610000  1
  C  C556  1  0.41000000  0.15440000  0.76080000  1
  C  C557  1  0.37610000  0.15510000  0.72920000  1
  C  C558  1  0.23720000  0.86090000  0.59190000  1
  C  C559  1  0.81950000  0.81030000  0.17680000  1
  C  C560  1  0.88190000  0.87680000  0.24270000  1
  C  C561  1  0.26280000  0.85470000  0.62370000  1
  C  C562  1  0.62920000  0.80090000  0.99410000  1
  C  C563  1  0.99490000  0.11810000  0.36080000  1
  C  C564  1  0.99080000  0.18050000  0.35730000  1
  C  C565  1  0.80820000  0.18490000  0.17590000  1
  C  C566  1  0.49410000  0.19320000  0.86490000  1
  C  C567  1  0.30870000  0.18670000  0.68140000  1
  C  C568  1  0.74220000  0.12210000  0.11750000  1
  C  C569  1  0.77080000  0.42590000  0.14690000  1
  C  C570  1  0.85470000  0.59190000  0.23100000  1
  C  C571  1  0.13230000  0.82410000  0.50900000  1
  C  C572  1  0.61810000  0.86080000  0.99490000  1
  C  C573  1  0.81490000  0.50960000  0.19270000  1
  C  C574  1  0.24220000  0.12470000  0.62010000  1
  C  C575  1  0.31330000  0.81860000  0.69130000  1
  C  C576  1  0.84370000  0.83670000  0.22220000  1
  C  C577  1  0.12470000  0.88250000  0.50460000  1
  C  C578  1  0.49490000  0.13410000  0.87680000  1
  C  C579  1  0.37530000  0.87990000  0.75780000  1
  C  C580  1  0.99300000  0.15630000  0.37850000  1
  C  C581  1  0.76210000  0.16150000  0.15260000  1
  C  C582  1  0.60590000  0.82220000  0.99670000  1
  C  C583  1  0.34080000  0.57660000  0.73300000  1
  C  C584  1  0.25560000  0.41000000  0.64920000  1
  C  C585  1  0.49670000  0.17450000  0.89080000  1
  C  C586  1  0.26340000  0.16230000  0.66030000  1
  C  C587  1  0.29440000  0.49180000  0.69140000  1
  C  C588  1  0.33770000  0.83970000  0.73660000  1
  C  C589  1  0.78100000  0.46890000  0.18010000  1
  C  C590  1  0.10950000  0.84740000  0.50890000  1
  C  C591  1  0.82080000  0.54960000  0.22060000  1
  C  C592  1  0.86090000  0.62370000  0.26900000  1
  C  C593  1  0.73920000  0.39360000  0.14920000  1
  C  C594  1  0.26410000  0.45170000  0.68180000  1
  C  C595  1  0.30410000  0.53100000  0.72210000  1
  C  C596  1  0.82700000  0.82260000  0.24960000  1
  C  C597  1  0.34360000  0.60780000  0.76700000  1
  C  C598  1  0.22100000  0.37610000  0.64690000  1
  C  C599  1  0.99560000  0.17300000  0.42260000  1
  C  C600  1  0.73790000  0.18160000  0.16850000  1
  C  C601  1  0.50300000  0.19720000  0.93620000  1
  C  C602  1  0.56680000  0.80580000  0.00300000  1
  C  C603  1  0.32560000  0.81850000  0.76190000  1
  C  C604  1  0.23810000  0.17440000  0.68150000  1
  C  C605  1  0.06940000  0.83150000  0.51310000  1
  C  C606  1  0.82900000  0.60020000  0.27940000  1
  C  C607  1  0.73010000  0.41770000  0.18180000  1
  C  C608  1  0.21120000  0.39910000  0.68010000  1
  C  C609  1  0.30890000  0.58200000  0.77790000  1
  C  C610  1  0.83150000  0.76210000  0.31840000  1
  C  C611  1  0.81690000  0.62220000  0.30730000  1
  C  C612  1  0.67550000  0.34800000  0.16610000  1
  C  C613  1  0.68970000  0.32320000  0.18050000  1
  C  C614  1  0.82410000  0.69180000  0.31510000  1
  C  C615  1  0.84740000  0.73790000  0.33850000  1
  C  C616  1  0.69960000  0.39700000  0.19140000  1
  C  C617  1  0.84070000  0.67180000  0.33270000  1
  C  C618  1  0.06370000  0.23810000  0.55660000  1
  C  C619  1  0.66330000  0.27780000  0.15630000  1
  C  C620  1  0.63510000  0.32830000  0.12920000  1
  C  C621  1  0.87800000  0.69130000  0.37270000  1
  C  C622  1  0.62320000  0.25730000  0.11810000  1
  C  C623  1  0.88250000  0.75780000  0.37790000  1
  C  C624  1  0.67740000  0.25040000  0.17300000  1
  C  C625  1  0.60920000  0.28370000  0.10590000  1
  C  C626  1  0.43620000  0.73900000  0.93320000  1
  C  C627  1  0.89890000  0.73660000  0.39690000  1
  C  C628  1  0.10110000  0.26340000  0.60310000  1
  C  C629  1  0.56380000  0.26100000  0.06680000  1
  C  C630  1  0.39080000  0.71630000  0.89410000  1
  C  C631  1  0.32260000  0.74960000  0.82700000  1
  C  C632  1  0.11750000  0.24220000  0.62210000  1
  C  C633  1  0.37680000  0.74270000  0.88190000  1
  C  C634  1  0.12200000  0.30870000  0.62730000  1
  C  C635  1  0.36490000  0.67170000  0.87080000  1
  C  C636  1  0.33670000  0.72220000  0.84370000  1
  C  C637  1  0.93630000  0.76190000  0.44340000  1
  C  C638  1  0.15930000  0.32820000  0.66730000  1
  C  C639  1  0.30040000  0.60300000  0.80860000  1
  C  C640  1  0.15260000  0.26210000  0.66150000  1
  C  C641  1  0.17590000  0.30820000  0.68490000  1
  C  C642  1  0.31030000  0.67680000  0.81950000  1
  C  C643  1  0.32450000  0.65200000  0.83390000  1
  C  C644  1  0.18310000  0.37780000  0.69270000  1
  C  C645  1  0.16850000  0.23790000  0.68160000  1
  C  C646  1  0.69110000  0.41800000  0.22210000  1
  C  C647  1  0.78880000  0.60090000  0.31990000  1
  C  C648  1  0.26990000  0.58230000  0.81820000  1
  C  C649  1  0.17100000  0.39980000  0.72060000  1
  C  C650  1  0.93060000  0.16850000  0.48690000  1
  C  C651  1  0.76190000  0.82560000  0.31850000  1
  C  C652  1  0.67440000  0.18150000  0.23810000  1
  C  C653  1  0.43320000  0.19420000  0.99700000  1
  C  C654  1  0.49700000  0.80280000  0.06380000  1
  C  C655  1  0.26210000  0.81840000  0.83150000  1
  C  C656  1  0.00440000  0.82700000  0.57740000  1
  C  C657  1  0.77900000  0.62390000  0.35310000  1
  C  C658  1  0.65640000  0.39220000  0.23300000  1
  C  C659  1  0.17300000  0.17740000  0.75040000  1
  C  C660  1  0.69590000  0.46900000  0.27790000  1
  C  C661  1  0.73590000  0.54830000  0.31820000  1
  C  C662  1  0.26080000  0.60640000  0.85080000  1
  C  C663  1  0.13910000  0.37630000  0.73100000  1
  C  C664  1  0.17920000  0.45040000  0.77940000  1
  C  C665  1  0.89050000  0.15260000  0.49110000  1
  C  C666  1  0.21900000  0.53110000  0.81990000  1
  C  C667  1  0.66230000  0.16030000  0.26340000  1
  C  C668  1  0.70560000  0.50820000  0.30860000  1
  C  C669  1  0.73660000  0.83770000  0.33970000  1
  C  C670  1  0.50330000  0.82550000  0.10920000  1
  C  C671  1  0.74440000  0.59000000  0.35080000  1
  C  C672  1  0.65920000  0.42340000  0.26700000  1
  C  C673  1  0.39410000  0.17780000  0.00330000  1
  C  C674  1  0.23790000  0.83850000  0.84740000  1
  C  C675  1  0.00700000  0.84370000  0.62150000  1
  C  C676  1  0.62470000  0.12010000  0.24220000  1
  C  C677  1  0.50510000  0.86590000  0.12320000  1
  C  C678  1  0.87530000  0.11750000  0.49540000  1
  C  C679  1  0.15630000  0.16330000  0.77780000  1
  C  C680  1  0.68670000  0.18140000  0.30870000  1
  C  C681  1  0.75780000  0.87530000  0.37990000  1
  C  C682  1  0.18510000  0.49040000  0.80730000  1
  C  C683  1  0.38190000  0.13920000  0.00510000  1
  C  C684  1  0.86770000  0.17590000  0.49100000  1
  C  C685  1  0.14530000  0.40810000  0.76900000  1
  C  C686  1  0.22920000  0.57410000  0.85310000  1
  C  C687  1  0.25780000  0.87790000  0.88250000  1
  C  C688  1  0.69130000  0.81330000  0.31860000  1
  C  C689  1  0.50590000  0.80680000  0.13510000  1
  C  C690  1  0.19180000  0.81510000  0.82410000  1
  C  C691  1  0.00920000  0.81950000  0.64270000  1
  C  C692  1  0.00510000  0.88190000  0.63920000  1
  C  C693  1  0.37080000  0.19910000  0.00590000  1
  C  C694  1  0.73720000  0.14530000  0.37630000  1
  C  C695  1  0.11810000  0.12320000  0.75730000  1
  C  C696  1  0.18050000  0.18970000  0.82320000  1
  C  C697  1  0.76280000  0.13910000  0.40810000  1
  C  C698  1  0.62390000  0.84490000  0.27080000  1
  C  C699  1  0.59000000  0.84560000  0.23920000  1
  C  C700  1  0.68190000  0.50940000  0.33390000  1
  C  C701  1  0.60950000  0.10060000  0.26210000  1
  C  C702  1  0.09000000  0.85080000  0.74440000  1
  C  C703  1  0.12390000  0.85310000  0.77900000  1
  C  C704  1  0.50700000  0.88550000  0.16330000  1
  C  C705  1  0.26700000  0.15920000  0.92340000  1
  C  C706  1  0.23300000  0.15640000  0.89220000  1
  C  C707  1  0.66890000  0.16090000  0.32820000  1
  C  C708  1  0.83770000  0.10110000  0.49800000  1
  C  C709  1  0.83110000  0.15930000  0.49200000  1
  C  C710  1  0.73790000  0.89050000  0.39940000  1
  C  C711  1  0.23660000  0.89690000  0.89890000  1
  C  C712  1  0.34370000  0.12150000  0.00700000  1
  C  C713  1  0.50940000  0.82750000  0.17550000  1
  C  C714  1  0.67180000  0.83110000  0.33910000  1
  C  C715  1  0.56940000  0.05630000  0.23790000  1
  C  C716  1  0.17180000  0.83270000  0.84070000  1
  C  C717  1  0.72880000  0.17920000  0.39980000  1
  C  C718  1  0.69910000  0.50590000  0.37080000  1
  C  C719  1  0.16090000  0.49200000  0.83270000  1
  C  C720  1  0.00940000  0.83390000  0.68190000  1
  C  C721  1  0.50440000  0.92700000  0.17740000  1
  C  C722  1  0.26190000  0.94340000  0.93630000  1
  C  C723  1  0.00330000  0.89410000  0.67780000  1
  C  C724  1  0.33390000  0.18190000  0.00940000  1
  C  C725  1  0.63230000  0.12330000  0.30820000  1
  C  C726  1  0.64270000  0.50920000  0.31950000  1
  C  C727  1  0.32700000  0.07740000  0.00440000  1
  C  C728  1  0.10590000  0.10920000  0.78370000  1
  C  C729  1  0.77120000  0.17100000  0.45040000  1
  C  C730  1  0.60090000  0.81210000  0.28100000  1
  C  C731  1  0.50920000  0.86650000  0.18970000  1
  C  C732  1  0.81330000  0.12200000  0.49470000  1
  C  C733  1  0.82560000  0.06370000  0.50710000  1
  C  C734  1  0.76210000  0.93060000  0.44370000  1
  C  C735  1  0.54830000  0.81240000  0.23010000  1
  C  C736  1  0.16610000  0.17550000  0.84800000  1
  C  C737  1  0.69470000  0.18510000  0.37780000  1
  C  C738  1  0.69180000  0.86770000  0.37670000  1
  C  C739  1  0.80530000  0.18310000  0.49040000  1
  C  C740  1  0.19130000  0.87270000  0.87800000  1
  C  C741  1  0.04830000  0.81820000  0.73590000  1
  C  C742  1  0.10090000  0.81990000  0.78880000  1
  C  C743  1  0.31950000  0.14270000  0.00920000  1
  C  C744  1  0.27790000  0.19590000  0.96900000  1
  C  C745  1  0.18140000  0.49470000  0.87270000  1
  C  C746  1  0.50820000  0.80260000  0.19960000  1
  C  C747  1  0.12330000  0.49100000  0.81510000  1
  C  C748  1  0.62220000  0.80530000  0.31490000  1
  C  C749  1  0.00590000  0.87080000  0.69910000  1
  C  C750  1  0.06680000  0.06380000  0.76100000  1
  C  C751  1  0.12220000  0.80730000  0.81690000  1
  C  C752  1  0.22210000  0.19110000  0.91800000  1
  C  C753  1  0.99700000  0.93320000  0.69420000  1
  C  C754  1  0.00820000  0.80860000  0.70560000  1
  C  C755  1  0.12920000  0.13510000  0.82830000  1
  C  C756  1  0.30860000  0.20560000  0.00820000  1
  C  C757  1  0.19140000  0.19960000  0.89700000  1
  C  C758  1  0.68790000  0.21900000  0.39910000  1
  C  C759  1  0.67780000  0.50330000  0.39410000  1
  C  C760  1  0.81210000  0.21120000  0.53110000  1
  C  C761  1  0.60020000  0.77120000  0.32080000  1
  C  C762  1  0.65510000  0.22920000  0.37610000  1
  C  C763  1  0.46900000  0.77310000  0.19110000  1
  C  C764  1  0.62150000  0.50700000  0.34370000  1
  C  C765  1  0.96900000  0.77790000  0.69590000  1
  C  C766  1  0.10020000  0.77940000  0.82900000  1
  C  C767  1  0.84490000  0.22100000  0.57410000  1
  C  C768  1  0.31820000  0.23590000  0.04830000  1
  C  C769  1  0.62370000  0.76280000  0.35470000  1
  C  C770  1  0.42340000  0.76420000  0.15640000  1
  C  C771  1  0.92340000  0.76700000  0.65920000  1
  C  C772  1  0.18180000  0.23010000  0.91770000  1
  C  C773  1  0.16030000  0.49800000  0.89690000  1
  C  C774  1  0.12370000  0.76900000  0.86090000  1
  C  C775  1  0.10060000  0.49110000  0.83850000  1
  C  C776  1  0.33150000  0.01310000  0.06940000  1
  C  C777  1  0.43630000  0.99290000  0.17440000  1
  C  C778  1  0.69420000  0.49700000  0.43320000  1
  C  C779  1  0.35080000  0.24440000  0.09000000  1
  C  C780  1  0.38250000  0.00460000  0.12470000  1
  C  C781  1  0.63920000  0.50510000  0.38190000  1
  C  C782  1  0.14920000  0.23920000  0.89360000  1
  C  C783  1  0.57740000  0.50440000  0.32700000  1
  C  C784  1  0.82260000  0.99560000  0.57300000  1
  C  C785  1  0.65440000  0.26080000  0.41000000  1
  C  C786  1  0.87680000  0.99490000  0.63410000  1
  C  C787  1  0.12010000  0.49540000  0.87790000  1
  C  C788  1  0.84560000  0.25560000  0.60640000  1
  C  C789  1  0.93620000  0.00300000  0.69720000  1
  C  C790  1  0.18150000  0.50710000  0.94340000  1
  C  C791  1  0.05630000  0.48690000  0.81840000  1
  C  C792  1  0.34740000  0.00890000  0.10950000  1
  C  C793  1  0.09190000  0.73100000  0.85470000  1
  C  C794  1  0.39890000  0.00200000  0.16230000  1
  C  C795  1  0.68760000  0.26990000  0.45170000  1
  C  C796  1  0.89220000  0.73300000  0.65640000  1
  C  C797  1  0.39220000  0.73580000  0.15920000  1
  C  C798  1  0.59190000  0.73720000  0.36090000  1
  C  C799  1  0.81240000  0.26410000  0.58230000  1
  C  C800  1  0.35310000  0.27900000  0.12390000  1
  C  C801  1  0.04960000  0.72060000  0.82080000  1
  C  C802  1  0.91800000  0.72210000  0.69110000  1
  C  C803  1  0.83670000  0.99300000  0.61450000  1
  C  C804  1  0.41800000  0.72690000  0.19590000  1
  C  C805  1  0.14690000  0.27080000  0.92590000  1
  C  C806  1  0.54960000  0.72880000  0.32900000  1
  C  C807  1  0.31990000  0.28880000  0.10090000  1
  C  C808  1  0.89080000  0.99670000  0.67450000  1
  C  C809  1  0.18010000  0.28100000  0.96890000  1
  C  C810  1  0.69740000  0.30040000  0.49180000  1
  C  C811  1  0.80260000  0.29440000  0.60300000  1
  C  C812  1  0.69320000  0.36490000  0.49410000  1
  C  C813  1  0.89700000  0.69140000  0.69960000  1
  C  C814  1  0.76100000  0.56680000  0.56380000  1
  C  C815  1  0.72690000  0.30890000  0.53100000  1
  C  C816  1  0.00960000  0.69270000  0.81490000  1
  C  C817  1  0.69720000  0.43620000  0.50300000  1
  C  C818  1  0.82830000  0.62920000  0.63510000  1
  C  C819  1  0.50960000  0.69470000  0.31690000  1
  C  C820  1  0.32410000  0.00900000  0.13230000  1
  C  C821  1  0.39700000  0.69740000  0.20560000  1
  C  C822  1  0.37800000  0.00530000  0.18670000  1
  C  C823  1  0.77310000  0.30410000  0.58200000  1
  C  C824  1  0.86650000  0.35730000  0.67680000  1
  C  C825  1  0.96890000  0.68010000  0.78100000  1
  C  C826  1  0.91770000  0.68180000  0.73010000  1
  C  C827  1  0.00530000  0.62730000  0.81860000  1
  C  C828  1  0.30730000  0.31690000  0.12220000  1
  C  C829  1  0.50900000  0.63230000  0.32410000  1
  C  C830  1  0.19270000  0.31490000  0.00960000  1
  C  C831  1  0.67250000  0.32450000  0.49060000  1
  C  C832  1  0.41770000  0.68760000  0.23590000  1
  C  C833  1  0.51310000  0.56940000  0.33150000  1
  C  C834  1  0.44340000  0.43630000  0.26190000  1
  C  C835  1  0.37270000  0.37800000  0.19130000  1
  C  C836  1  0.32320000  0.63350000  0.14270000  1
  C  C837  1  0.46890000  0.68790000  0.28880000  1
  C  C838  1  0.27940000  0.32900000  0.10020000  1
  C  C839  1  0.67450000  0.39080000  0.49670000  1
  C  C840  1  0.92700000  0.42260000  0.74960000  1
  C  C841  1  0.81030000  0.99080000  0.63350000  1
  C  C842  1  0.18490000  0.37670000  0.00900000  1
  C  C843  1  0.82750000  0.31810000  0.65200000  1
  C  C844  1  0.78370000  0.60590000  0.60920000  1
  C  C845  1  0.99290000  0.55660000  0.81850000  1
  C  C846  1  0.25040000  0.57300000  0.07740000  1
  C  C847  1  0.84800000  0.66610000  0.67550000  1
  C  C848  1  0.34070000  0.00800000  0.16890000  1
  C  C849  1  0.86490000  0.99410000  0.69320000  1
  C  C850  1  0.22060000  0.32080000  0.04960000  1
  C  C851  1  0.00800000  0.66730000  0.83910000  1
  C  C852  1  0.18160000  0.44370000  0.01310000  1
  C  C853  1  0.50800000  0.66890000  0.34070000  1
  C  C854  1  0.34800000  0.67250000  0.18190000  1
  C  C855  1  0.88550000  0.37850000  0.72220000  1
  C  C856  1  0.00200000  0.60310000  0.83970000  1
  C  C857  1  0.50890000  0.60950000  0.34740000  1
  C  C858  1  0.33270000  0.34070000  0.17180000  1
  C  C859  1  0.39690000  0.39890000  0.23660000  1
  C  C860  1  0.16730000  0.33910000  0.00800000  1
  C  C861  1  0.73580000  0.34360000  0.57660000  1
  C  C862  1  0.76420000  0.34080000  0.60780000  1
  C  C863  1  0.27780000  0.61450000  0.12150000  1
  C  C864  1  0.92590000  0.64690000  0.77080000  1
  C  C865  1  0.89360000  0.64920000  0.73920000  1
  C  C866  1  0.16150000  0.39940000  0.00890000  1
  C  C867  1  0.82450000  0.99060000  0.67250000  1
  C  C868  1  0.39360000  0.65440000  0.24440000  1
  C  C869  1  0.42590000  0.65510000  0.27900000  1
  C  C870  1  0.26900000  0.36090000  0.12370000  1
  C  C871  1  0.63350000  0.31030000  0.49080000  1
  C  C872  1  0.63410000  0.37680000  0.49490000  1
  C  C873  1  0.23100000  0.35470000  0.09190000  1
  C  C874  1  0.80680000  0.30090000  0.67170000  1
  C  C875  1  0.75730000  0.61810000  0.62320000  1
  C  C876  1  0.82320000  0.68050000  0.68970000  1
  C  C877  1  0.00900000  0.68490000  0.87670000  1
  C  C878  1  0.32830000  0.69320000  0.19910000  1
  C  C879  1  0.50530000  0.68670000  0.37800000  1
  C  C880  1  0.00460000  0.62210000  0.87990000  1
  C  C881  1  0.27900000  0.92590000  0.15510000  1
  C  C882  1  0.36090000  0.09190000  0.23720000  1
  C  C883  1  0.31510000  0.32410000  0.19180000  1
  C  C884  1  0.86590000  0.36080000  0.74270000  1
  C  C885  1  0.31690000  0.00960000  0.19470000  1
  C  C886  1  0.50460000  0.62470000  0.38250000  1
  C  C887  1  0.12730000  0.31860000  0.00530000  1
  C  C888  1  0.61450000  0.33670000  0.49300000  1
  C  C889  1  0.37790000  0.38250000  0.25780000  1
  C  C890  1  0.25730000  0.63410000  0.13920000  1
  C  C891  1  0.12210000  0.37990000  0.00460000  1
  C  C892  1  0.77780000  0.65630000  0.66330000  1
  C  C893  1  0.00890000  0.66150000  0.89940000  1
  C  C894  1  0.82550000  0.32220000  0.71630000  1
  C  C895  1  0.84360000  0.07660000  0.73580000  1
  C  C896  1  0.76080000  0.91000000  0.65440000  1
  C  C897  1  0.28370000  0.67450000  0.17780000  1
  C  C898  1  0.50200000  0.66230000  0.39890000  1
  C  C899  1  0.80040000  0.99180000  0.69740000  1
  C  C900  1  0.10310000  0.33970000  0.00200000  1
  C  C901  1  0.28880000  0.96890000  0.18790000  1
  C  C902  1  0.33850000  0.34740000  0.23790000  1
  C  C903  1  0.32900000  0.04960000  0.22880000  1
  C  C904  1  0.35470000  0.12370000  0.26280000  1
  C  C905  1  0.24440000  0.89360000  0.15440000  1
  C  C906  1  0.76990000  0.95170000  0.68760000  1
  C  C907  1  0.80890000  0.03100000  0.72690000  1
  C  C908  1  0.57300000  0.32260000  0.49560000  1
  C  C909  1  0.84080000  0.10780000  0.76420000  1
  C  C910  1  0.72920000  0.87610000  0.65510000  1
  C  C911  1  0.75040000  0.67300000  0.67740000  1
  C  C912  1  0.01310000  0.68160000  0.94370000  1
  C  C913  1  0.26100000  0.69720000  0.19420000  1
  C  C914  1  0.80280000  0.30580000  0.73900000  1
  C  C915  1  0.05660000  0.31850000  0.99290000  1
  C  C916  1  0.49290000  0.67440000  0.43630000  1
  C  C917  1  0.31840000  0.33150000  0.26210000  1
  C  C918  1  0.32080000  0.10020000  0.27120000  1
  C  C919  1  0.23590000  0.91770000  0.18760000  1
  C  C920  1  0.71900000  0.89910000  0.68790000  1
  C  C921  1  0.80410000  0.08200000  0.77310000  1
  C  C922  1  0.44370000  0.26210000  0.43060000  1
  C  C923  1  0.31490000  0.12220000  0.30530000  1
  C  C924  1  0.18190000  0.84800000  0.17250000  1
  C  C925  1  0.14270000  0.82320000  0.13350000  1
  C  C926  1  0.37670000  0.19180000  0.36770000  1
  C  C927  1  0.39940000  0.23790000  0.39050000  1
  C  C928  1  0.20560000  0.89700000  0.19740000  1
  C  C929  1  0.33910000  0.17180000  0.33110000  1
  C  C930  1  0.68150000  0.73810000  0.67440000  1
  C  C931  1  0.12150000  0.77780000  0.11450000  1
  C  C932  1  0.19910000  0.82830000  0.19320000  1
  C  C933  1  0.31860000  0.19130000  0.31330000  1
  C  C934  1  0.13920000  0.75730000  0.13410000  1
  C  C935  1  0.37990000  0.25780000  0.37530000  1
  C  C936  1  0.07740000  0.75040000  0.07300000  1
  C  C937  1  0.17780000  0.78370000  0.17450000  1
  C  C938  1  0.80580000  0.23900000  0.80280000  1
  C  C939  1  0.33970000  0.23660000  0.33770000  1
  N  N940  1  0.25650000  0.05630000  0.29360000  1
  N  N941  1  0.21210000  0.96210000  0.25000000  1
  N  N942  1  0.69390000  0.94390000  0.75000000  1
  N  N943  1  0.73730000  0.03710000  0.79360000  1
  N  N944  1  0.75000000  0.69390000  0.94390000  1
  N  N945  1  0.53710000  0.29360000  0.73730000  1
  N  N946  1  0.03710000  0.29980000  0.24350000  1
  N  N947  1  0.25000000  0.71210000  0.46210000  1
  N  N948  1  0.79980000  0.74350000  0.03710000  1
  N  N949  1  0.70020000  0.73730000  0.94370000  1
  N  N950  1  0.03790000  0.25000000  0.28790000  1
  N  N951  1  0.94390000  0.25000000  0.19390000  1
  N  N952  1  0.53790000  0.25000000  0.78790000  1
  N  N953  1  0.44390000  0.25000000  0.69390000  1
  N  N954  1  0.20640000  0.76270000  0.46290000  1
  N  N955  1  0.29360000  0.75650000  0.55630000  1
  N  N956  1  0.75000000  0.78790000  0.03790000  1
  N  N957  1  0.94370000  0.20020000  0.23730000  1
  N  N958  1  0.44370000  0.20640000  0.74350000  1
  N  N959  1  0.25000000  0.80610000  0.55610000  1
  N  N960  1  0.75650000  0.46290000  0.20020000  1
  N  N961  1  0.80610000  0.55610000  0.25000000  1
  N  N962  1  0.28790000  0.53790000  0.75000000  1
  N  N963  1  0.23730000  0.44370000  0.70020000  1
  N  N964  1  0.76270000  0.55630000  0.29980000  1
  N  N965  1  0.71210000  0.46210000  0.25000000  1
  N  N966  1  0.19390000  0.44390000  0.75000000  1
  N  N967  1  0.24350000  0.53710000  0.79980000  1
  N  N968  1  0.75000000  0.19390000  0.44390000  1
  N  N969  1  0.55630000  0.79360000  0.25650000  1
  N  N970  1  0.05630000  0.79980000  0.76270000  1
  N  N971  1  0.25000000  0.21210000  0.96210000  1
  N  N972  1  0.70640000  0.24350000  0.44370000  1
  N  N973  1  0.79360000  0.23730000  0.53710000  1
  N  N974  1  0.55610000  0.75000000  0.30610000  1
  N  N975  1  0.46210000  0.75000000  0.21210000  1
  N  N976  1  0.05610000  0.75000000  0.80610000  1
  N  N977  1  0.96210000  0.75000000  0.71210000  1
  N  N978  1  0.29980000  0.26270000  0.05630000  1
  N  N979  1  0.20020000  0.25650000  0.96290000  1
  N  N980  1  0.75000000  0.28790000  0.53790000  1
  N  N981  1  0.96290000  0.70020000  0.75650000  1
  N  N982  1  0.46290000  0.70640000  0.26270000  1
  N  N983  1  0.25000000  0.30610000  0.05610000  1
  N  N984  1  0.26270000  0.96290000  0.20640000  1
  N  N985  1  0.30610000  0.05610000  0.25000000  1
  N  N986  1  0.78790000  0.03790000  0.75000000  1
  N  N987  1  0.74350000  0.94370000  0.70640000  1
  O  O988  1  0.76840000  0.21740000  0.77020000  1
  O  O989  1  0.93890000  0.23090000  0.94220000  1
  O  O990  1  0.93890000  0.28960000  0.94350000  1
  O  O991  1  0.28440000  0.24110000  0.28910000  1
  O  O992  1  0.53790000  0.69600000  0.54870000  1
  O  O993  1  0.33760000  0.30260000  0.35140000  1
  O  O994  1  0.16600000  0.72110000  0.18010000  1
  O  O995  1  0.54180000  0.76040000  0.55920000  1
  O  O996  1  0.51380000  0.35140000  0.54880000  1
  O  O997  1  0.65810000  0.64730000  0.69600000  1
  O  O998  1  0.18010000  0.66600000  0.22110000  1
  O  O999  1  0.71860000  0.70120000  0.76040000  1
  O  O1000  1  0.50470000  0.28910000  0.54800000  1
  O  O1001  1  0.95670000  0.71560000  0.00470000  1
  O  O1002  1  0.98920000  0.34190000  0.03790000  1
  O  O1003  1  0.96500000  0.66240000  0.01380000  1
  O  O1004  1  0.71740000  0.27020000  0.76840000  1
  O  O1005  1  0.22980000  0.73160000  0.28260000  1
  O  O1006  1  0.77890000  0.31990000  0.83400000  1
  O  O1007  1  0.28960000  0.35070000  0.34610000  1
  O  O1008  1  0.23090000  0.29200000  0.28870000  1
  O  O1009  1  0.98260000  0.28140000  0.04180000  1
  O  O1010  1  0.44350000  0.65390000  0.50460000  1
  O  O1011  1  0.44220000  0.71130000  0.50330000  1
  O  O1012  1  0.84190000  0.53790000  0.98920000  1
  O  O1013  1  0.01380000  0.46500000  0.16240000  1
  O  O1014  1  0.78960000  0.44350000  0.93890000  1
  O  O1015  1  0.05650000  0.56110000  0.21040000  1
  O  O1016  1  0.48920000  0.45130000  0.64730000  1
  O  O1017  1  0.53500000  0.54880000  0.69740000  1
  O  O1018  1  0.31990000  0.54100000  0.48590000  1
  O  O1019  1  0.27890000  0.44490000  0.45900000  1
  O  O1020  1  0.96210000  0.51080000  0.15810000  1
  O  O1021  1  0.83760000  0.48620000  0.03500000  1
  O  O1022  1  0.78140000  0.54180000  0.98260000  1
  O  O1023  1  0.73090000  0.44220000  0.93890000  1
  O  O1024  1  0.43890000  0.49540000  0.64930000  1
  O  O1025  1  0.00470000  0.45670000  0.21560000  1
  O  O1026  1  0.05780000  0.56110000  0.26910000  1
  O  O1027  1  0.54330000  0.54800000  0.75890000  1
  O  O1028  1  0.05280000  0.00180000  0.27020000  1
  O  O1029  1  0.48260000  0.44080000  0.70120000  1
  O  O1030  1  0.33400000  0.51410000  0.55510000  1
  O  O1031  1  0.21740000  0.44900000  0.44720000  1
  O  O1032  1  0.21130000  0.00330000  0.44220000  1
  O  O1033  1  0.27020000  0.55280000  0.50180000  1
  O  O1034  1  0.70120000  0.98260000  0.94080000  1
  O  O1035  1  0.54800000  0.00470000  0.78910000  1
  O  O1036  1  0.78440000  0.49530000  0.04330000  1
  O  O1037  1  0.95820000  0.51740000  0.21860000  1
  O  O1038  1  0.94900000  0.94720000  0.21740000  1
  O  O1039  1  0.43890000  0.49670000  0.70800000  1
  O  O1040  1  0.99820000  0.05100000  0.26840000  1
  O  O1041  1  0.04100000  0.98590000  0.31990000  1
  O  O1042  1  0.26040000  0.05920000  0.54180000  1
  O  O1043  1  0.26840000  0.49820000  0.55100000  1
  O  O1044  1  0.21090000  0.95200000  0.49530000  1
  O  O1045  1  0.70800000  0.93890000  0.99670000  1
  O  O1046  1  0.75890000  0.04330000  0.04800000  1
  O  O1047  1  0.15390000  0.00460000  0.44350000  1
  O  O1048  1  0.49670000  0.05780000  0.78870000  1
  O  O1049  1  0.44080000  0.95820000  0.73960000  1
  O  O1050  1  0.54880000  0.01380000  0.85140000  1
  O  O1051  1  0.64730000  0.98920000  0.95130000  1
  O  O1052  1  0.01410000  0.05510000  0.33400000  1
  O  O1053  1  0.94490000  0.95900000  0.27890000  1
  O  O1054  1  0.14860000  0.95120000  0.48620000  1
  O  O1055  1  0.19600000  0.04870000  0.53790000  1
  O  O1056  1  0.64930000  0.93890000  0.99540000  1
  O  O1057  1  0.49540000  0.05650000  0.84610000  1
  O  O1058  1  0.69740000  0.03500000  0.04880000  1
  O  O1059  1  0.45130000  0.96210000  0.80400000  1
  O  O1060  1  0.85070000  0.84610000  0.28960000  1
  O  O1061  1  0.79200000  0.78870000  0.23090000  1
  O  O1062  1  0.76040000  0.21860000  0.20120000  1
  O  O1063  1  0.99670000  0.20800000  0.43890000  1
  O  O1064  1  0.99540000  0.14930000  0.43890000  1
  O  O1065  1  0.51410000  0.18010000  0.95900000  1
  O  O1066  1  0.55100000  0.76840000  0.99820000  1
  O  O1067  1  0.49820000  0.22980000  0.94720000  1
  O  O1068  1  0.35140000  0.83760000  0.80260000  1
  O  O1069  1  0.69600000  0.15810000  0.14730000  1
  O  O1070  1  0.28910000  0.78440000  0.74110000  1
  O  O1071  1  0.25890000  0.21090000  0.71560000  1
  O  O1072  1  0.05920000  0.79880000  0.51740000  1
  O  O1073  1  0.55510000  0.83400000  0.01410000  1
  O  O1074  1  0.04870000  0.85270000  0.51080000  1
  O  O1075  1  0.19740000  0.14860000  0.66240000  1
  O  O1076  1  0.79880000  0.73960000  0.28140000  1
  O  O1077  1  0.45900000  0.77890000  0.94490000  1
  O  O1078  1  0.04880000  0.19740000  0.53500000  1
  O  O1079  1  0.85270000  0.80400000  0.34190000  1
  O  O1080  1  0.04800000  0.25890000  0.54330000  1
  O  O1081  1  0.65390000  0.21040000  0.14930000  1
  O  O1082  1  0.71130000  0.26910000  0.20800000  1
  O  O1083  1  0.55280000  0.28260000  0.05100000  1
  O  O1084  1  0.44720000  0.71740000  0.94900000  1
  O  O1085  1  0.28870000  0.73090000  0.79200000  1
  O  O1086  1  0.34610000  0.78960000  0.85070000  1
  O  O1087  1  0.95200000  0.74110000  0.45670000  1
  O  O1088  1  0.14730000  0.19600000  0.65810000  1
  O  O1089  1  0.95120000  0.80260000  0.46500000  1
  O  O1090  1  0.54100000  0.22110000  0.05510000  1
  O  O1091  1  0.20120000  0.26040000  0.71860000  1
  O  O1092  1  0.80260000  0.85140000  0.33760000  1
  O  O1093  1  0.95130000  0.14730000  0.48920000  1
  O  O1094  1  0.44490000  0.16600000  0.98590000  1
  O  O1095  1  0.94080000  0.20120000  0.48260000  1
  O  O1096  1  0.74110000  0.78910000  0.28440000  1
  O  O1097  1  0.71090000  0.21560000  0.25890000  1
  O  O1098  1  0.30400000  0.84190000  0.85270000  1
  O  O1099  1  0.64860000  0.16240000  0.19740000  1
  O  O1100  1  0.50180000  0.77020000  0.05280000  1
  O  O1101  1  0.44900000  0.23160000  0.00180000  1
  O  O1102  1  0.48590000  0.81990000  0.04100000  1
  O  O1103  1  0.00460000  0.85070000  0.56110000  1
  O  O1104  1  0.00330000  0.79200000  0.56110000  1
  O  O1105  1  0.23960000  0.78140000  0.79880000  1
  O  O1106  1  0.20800000  0.21130000  0.76910000  1
  O  O1107  1  0.14930000  0.15390000  0.71040000  1
  O  O1108  1  0.54870000  0.03790000  0.19600000  1
  O  O1109  1  0.30260000  0.96500000  0.95120000  1
  O  O1110  1  0.50460000  0.94350000  0.15390000  1
  O  O1111  1  0.35070000  0.06110000  0.00460000  1
  O  O1112  1  0.80400000  0.95130000  0.46210000  1
  O  O1113  1  0.85140000  0.04880000  0.51380000  1
  O  O1114  1  0.05510000  0.04100000  0.72110000  1
  O  O1115  1  0.98590000  0.94490000  0.66600000  1
  O  O1116  1  0.35270000  0.01080000  0.04870000  1
  O  O1117  1  0.45120000  0.98620000  0.14860000  1
  O  O1118  1  0.55920000  0.04180000  0.26040000  1
  O  O1119  1  0.50330000  0.94220000  0.21130000  1
  O  O1120  1  0.84610000  0.99540000  0.55650000  1
  O  O1121  1  0.24110000  0.95670000  0.95200000  1
  O  O1122  1  0.29200000  0.06110000  0.00330000  1
  O  O1123  1  0.78910000  0.04800000  0.50470000  1
  O  O1124  1  0.73160000  0.50180000  0.44900000  1
  O  O1125  1  0.73960000  0.94080000  0.45820000  1
  O  O1126  1  0.95900000  0.01410000  0.68010000  1
  O  O1127  1  0.00180000  0.94900000  0.73160000  1
  O  O1128  1  0.56110000  0.50330000  0.29200000  1
  O  O1129  1  0.05100000  0.05280000  0.78260000  1
  O  O1130  1  0.04180000  0.48260000  0.78140000  1
  O  O1131  1  0.21560000  0.50470000  0.95670000  1
  O  O1132  1  0.45200000  0.99530000  0.21090000  1
  O  O1133  1  0.29880000  0.01740000  0.05920000  1
  O  O1134  1  0.72980000  0.44720000  0.49820000  1
  O  O1135  1  0.78870000  0.99670000  0.55780000  1
  O  O1136  1  0.78260000  0.55100000  0.55280000  1
  O  O1137  1  0.66600000  0.48590000  0.44490000  1
  O  O1138  1  0.51740000  0.55920000  0.29880000  1
  O  O1139  1  0.94720000  0.99820000  0.72980000  1
  O  O1140  1  0.45670000  0.45200000  0.24110000  1
  O  O1141  1  0.94220000  0.43890000  0.73090000  1
  O  O1142  1  0.99530000  0.54330000  0.78440000  1
  O  O1143  1  0.56110000  0.50460000  0.35070000  1
  O  O1144  1  0.26910000  0.55780000  0.06110000  1
  O  O1145  1  0.21860000  0.45820000  0.01740000  1
  O  O1146  1  0.16240000  0.51380000  0.96500000  1
  O  O1147  1  0.03790000  0.48920000  0.84190000  1
  O  O1148  1  0.72110000  0.55510000  0.54100000  1
  O  O1149  1  0.68010000  0.45900000  0.51410000  1
  O  O1150  1  0.46500000  0.45120000  0.30260000  1
  O  O1151  1  0.51080000  0.54870000  0.35270000  1
  O  O1152  1  0.94350000  0.43890000  0.78960000  1
  O  O1153  1  0.21040000  0.55650000  0.06110000  1
  O  O1154  1  0.98620000  0.53500000  0.83760000  1
  O  O1155  1  0.15810000  0.46210000  0.01080000  1
  O  O1156  1  0.55780000  0.28870000  0.49670000  1
  O  O1157  1  0.55650000  0.34610000  0.49540000  1
  O  O1158  1  0.01740000  0.71860000  0.95820000  1
  O  O1159  1  0.76910000  0.70800000  0.71130000  1
  O  O1160  1  0.71040000  0.64930000  0.65390000  1
  O  O1161  1  0.22110000  0.68010000  0.16600000  1
  O  O1162  1  0.77020000  0.26840000  0.71740000  1
  O  O1163  1  0.28260000  0.72980000  0.23160000  1
  O  O1164  1  0.03500000  0.33760000  0.98620000  1
  O  O1165  1  0.01080000  0.65810000  0.96210000  1
  O  O1166  1  0.04330000  0.28440000  0.99530000  1
  O  O1167  1  0.49530000  0.71090000  0.45200000  1
  O  O1168  1  0.28140000  0.29880000  0.23960000  1
  O  O1169  1  0.81990000  0.33400000  0.77890000  1
  O  O1170  1  0.34190000  0.35270000  0.30400000  1
  O  O1171  1  0.48620000  0.64860000  0.45120000  1
  O  O1172  1  0.45820000  0.23960000  0.44080000  1
  O  O1173  1  0.83400000  0.27890000  0.81990000  1
  O  O1174  1  0.66240000  0.69740000  0.64860000  1
  O  O1175  1  0.46210000  0.30400000  0.45130000  1
  O  O1176  1  0.71560000  0.75890000  0.71090000  1
  O  O1177  1  0.06110000  0.71040000  0.05650000  1
  O  O1178  1  0.06110000  0.76910000  0.05780000  1
  O  O1179  1  0.23160000  0.78260000  0.22980000  1
