# generated using pymatgen
data_Zn3P3HO12
_symmetry_space_group_name_H-M   'P 1'
_cell_length_a   5.09860000
_cell_length_b   10.49430000
_cell_length_c   12.44570000
_cell_angle_alpha   87.61400000
_cell_angle_beta   87.25800000
_cell_angle_gamma   89.99400000
_symmetry_Int_Tables_number   1
_chemical_formula_structural   Zn3P3HO12
_chemical_formula_sum   'Zn6 P6 H2 O24'
_cell_volume   664.58229500
_cell_formula_units_Z   2
loop_
 _symmetry_equiv_pos_site_id
 _symmetry_equiv_pos_as_xyz
  1  'x, y, z'
loop_
 _atom_site_type_symbol
 _atom_site_label
 _atom_site_symmetry_multiplicity
 _atom_site_fract_x
 _atom_site_fract_y
 _atom_site_fract_z
 _atom_site_occupancy
  Zn  Zn0  1  0.19479000  0.60590000  0.60766000  1
  Zn  Zn1  1  0.21169000  0.35799000  0.99839000  1
  Zn  Zn2  1  0.28029000  0.85466000  0.00245000  1
  Zn  Zn3  1  0.71971000  0.14534000  0.99755000  1
  Zn  Zn4  1  0.78831000  0.64201000  0.00161000  1
  Zn  Zn5  1  0.80521000  0.39410000  0.39234000  1
  P  P6  1  0.24820000  0.11324000  0.86211000  1
  P  P7  1  0.28810000  0.60662000  0.86180000  1
  P  P8  1  0.29780000  0.32839000  0.52299000  1
  P  P9  1  0.70220000  0.67161000  0.47701000  1
  P  P10  1  0.71190000  0.39338000  0.13820000  1
  P  P11  1  0.75180000  0.88676000  0.13789000  1
  H  H12  1  0.23510000  0.18030000  0.62620000  1
  H  H13  1  0.76490000  0.81970000  0.37380000  1
  O  O14  1  0.04950000  0.87250000  0.12640000  1
  O  O15  1  0.14600000  0.69390000  0.94560000  1
  O  O16  1  0.16060000  0.47500000  0.87750000  1
  O  O17  1  0.16910000  0.20160000  0.56940000  1
  O  O18  1  0.17090000  0.36400000  0.41870000  1
  O  O19  1  0.24930000  0.66460000  0.75020000  1
  O  O20  1  0.25170000  0.42470000  0.60920000  1
  O  O21  1  0.33760000  0.97690000  0.88610000  1
  O  O22  1  0.35360000  0.15750000  0.75260000  1
  O  O23  1  0.36980000  0.19690000  0.94860000  1
  O  O24  1  0.41070000  0.69480000  0.49730000  1
  O  O25  1  0.42150000  0.39960000  0.11620000  1
  O  O26  1  0.57850000  0.60040000  0.88380000  1
  O  O27  1  0.58930000  0.30520000  0.50270000  1
  O  O28  1  0.63020000  0.80310000  0.05140000  1
  O  O29  1  0.64640000  0.84250000  0.24740000  1
  O  O30  1  0.66240000  0.02310000  0.11390000  1
  O  O31  1  0.74830000  0.57530000  0.39080000  1
  O  O32  1  0.75070000  0.33540000  0.24980000  1
  O  O33  1  0.82910000  0.63600000  0.58130000  1
  O  O34  1  0.83090000  0.79840000  0.43060000  1
  O  O35  1  0.83940000  0.52500000  0.12250000  1
  O  O36  1  0.85400000  0.30610000  0.05440000  1
  O  O37  1  0.95050000  0.12750000  0.87360000  1
