# generated using pymatgen
data_Zn2H3C9BrO7
_symmetry_space_group_name_H-M   'P 1'
_cell_length_a   10.24960000
_cell_length_b   13.45830000
_cell_length_c   16.24220000
_cell_angle_alpha   90.00000000
_cell_angle_beta   95.72000000
_cell_angle_gamma   90.00000000
_symmetry_Int_Tables_number   1
_chemical_formula_structural   Zn2H3C9BrO7
_chemical_formula_sum   'Zn8 H12 C36 Br4 O28'
_cell_volume   2229.32893454
_cell_formula_units_Z   4
loop_
 _symmetry_equiv_pos_site_id
 _symmetry_equiv_pos_as_xyz
  1  'x, y, z'
loop_
 _atom_site_type_symbol
 _atom_site_label
 _atom_site_symmetry_multiplicity
 _atom_site_fract_x
 _atom_site_fract_y
 _atom_site_fract_z
 _atom_site_occupancy
  Zn  Zn0  1  0.02167000  0.29392000  0.43600000  1
  Zn  Zn1  1  0.12411000  0.53153000  0.45508000  1
  Zn  Zn2  1  0.37589000  0.03153000  0.04492000  1
  Zn  Zn3  1  0.47833000  0.79392000  0.06400000  1
  Zn  Zn4  1  0.52167000  0.20608000  0.93600000  1
  Zn  Zn5  1  0.62411000  0.96847000  0.95508000  1
  Zn  Zn6  1  0.87589000  0.46847000  0.54492000  1
  Zn  Zn7  1  0.97833000  0.70608000  0.56400000  1
  H  H8  1  0.00300000  0.09850000  0.92310000  1
  H  H9  1  0.19350000  0.27820000  0.77860000  1
  H  H10  1  0.19960000  0.72880000  0.24590000  1
  H  H11  1  0.30040000  0.22880000  0.25410000  1
  H  H12  1  0.30650000  0.77820000  0.72140000  1
  H  H13  1  0.49700000  0.59850000  0.57690000  1
  H  H14  1  0.50300000  0.40150000  0.42310000  1
  H  H15  1  0.69350000  0.22180000  0.27860000  1
  H  H16  1  0.69960000  0.77120000  0.74590000  1
  H  H17  1  0.80040000  0.27120000  0.75410000  1
  H  H18  1  0.80650000  0.72180000  0.22140000  1
  H  H19  1  0.99700000  0.90150000  0.07690000  1
  C  C20  1  0.00141000  0.64009000  0.31453000  1
  C  C21  1  0.00154000  0.14622000  0.88163000  1
  C  C22  1  0.00282000  0.71389000  0.24461000  1
  C  C23  1  0.11537000  0.25343000  0.79489000  1
  C  C24  1  0.11738000  0.82094000  0.15662000  1
  C  C25  1  0.11873000  0.18391000  0.85865000  1
  C  C26  1  0.11985000  0.75089000  0.21999000  1
  C  C27  1  0.24264000  0.86051000  0.12785000  1
  C  C28  1  0.24705000  0.15277000  0.90304000  1
  C  C29  1  0.25295000  0.65277000  0.59696000  1
  C  C30  1  0.25736000  0.36051000  0.37215000  1
  C  C31  1  0.38015000  0.25089000  0.28001000  1
  C  C32  1  0.38127000  0.68391000  0.64135000  1
  C  C33  1  0.38262000  0.32094000  0.34338000  1
  C  C34  1  0.38463000  0.75343000  0.70511000  1
  C  C35  1  0.49718000  0.21389000  0.25539000  1
  C  C36  1  0.49846000  0.64622000  0.61837000  1
  C  C37  1  0.49859000  0.14009000  0.18547000  1
  C  C38  1  0.50141000  0.85991000  0.81453000  1
  C  C39  1  0.50154000  0.35378000  0.38163000  1
  C  C40  1  0.50282000  0.78611000  0.74461000  1
  C  C41  1  0.61537000  0.24657000  0.29489000  1
  C  C42  1  0.61738000  0.67906000  0.65662000  1
  C  C43  1  0.61873000  0.31609000  0.35865000  1
  C  C44  1  0.61985000  0.74911000  0.71999000  1
  C  C45  1  0.74264000  0.63949000  0.62785000  1
  C  C46  1  0.74705000  0.34723000  0.40304000  1
  C  C47  1  0.75295000  0.84723000  0.09696000  1
  C  C48  1  0.75736000  0.13949000  0.87215000  1
  C  C49  1  0.88015000  0.24911000  0.78001000  1
  C  C50  1  0.88127000  0.81609000  0.14135000  1
  C  C51  1  0.88262000  0.17906000  0.84338000  1
  C  C52  1  0.88463000  0.74657000  0.20511000  1
  C  C53  1  0.99718000  0.28611000  0.75539000  1
  C  C54  1  0.99846000  0.85378000  0.11837000  1
  C  C55  1  0.99859000  0.35991000  0.68547000  1
  Br  Br56  1  0.02919000  0.14479000  0.50806000  1
  Br  Br57  1  0.47081000  0.64479000  0.99194000  1
  Br  Br58  1  0.52919000  0.35521000  0.00806000  1
  Br  Br59  1  0.97081000  0.85521000  0.49194000  1
  O  O60  1  0.04954000  0.40997000  0.50687000  1
  O  O61  1  0.10696000  0.38872000  0.66723000  1
  O  O62  1  0.11188000  0.61230000  0.35001000  1
  O  O63  1  0.15135000  0.68432000  0.62476000  1
  O  O64  1  0.15678000  0.30689000  0.35810000  1
  O  O65  1  0.23561000  0.94208000  0.09133000  1
  O  O66  1  0.24215000  0.09663000  0.96509000  1
  O  O67  1  0.25785000  0.59663000  0.53491000  1
  O  O68  1  0.26439000  0.44208000  0.40867000  1
  O  O69  1  0.34322000  0.80689000  0.14190000  1
  O  O70  1  0.34865000  0.18432000  0.87524000  1
  O  O71  1  0.38812000  0.11230000  0.14999000  1
  O  O72  1  0.39304000  0.88872000  0.83277000  1
  O  O73  1  0.45046000  0.90997000  0.99313000  1
  O  O74  1  0.54954000  0.09003000  0.00687000  1
  O  O75  1  0.60696000  0.11128000  0.16723000  1
  O  O76  1  0.61188000  0.88770000  0.85001000  1
  O  O77  1  0.65135000  0.81568000  0.12476000  1
  O  O78  1  0.65678000  0.19311000  0.85810000  1
  O  O79  1  0.73561000  0.55792000  0.59133000  1
  O  O80  1  0.74215000  0.40337000  0.46509000  1
  O  O81  1  0.75785000  0.90337000  0.03491000  1
  O  O82  1  0.76439000  0.05792000  0.90867000  1
  O  O83  1  0.84322000  0.69311000  0.64190000  1
  O  O84  1  0.84865000  0.31568000  0.37524000  1
  O  O85  1  0.88812000  0.38770000  0.64999000  1
  O  O86  1  0.89304000  0.61128000  0.33277000  1
  O  O87  1  0.95046000  0.59003000  0.49313000  1
