# generated using pymatgen
data_ZnPH4C7O5
_symmetry_space_group_name_H-M   'P 1'
_cell_length_a   10.76660000
_cell_length_b   16.46200000
_cell_length_c   17.91200000
_cell_angle_alpha   90.00000000
_cell_angle_beta   91.09800000
_cell_angle_gamma   90.00000000
_symmetry_Int_Tables_number   1
_chemical_formula_structural   ZnPH4C7O5
_chemical_formula_sum   'Zn8 P8 H32 C56 O40'
_cell_volume   3174.13580923
_cell_formula_units_Z   8
loop_
 _symmetry_equiv_pos_site_id
 _symmetry_equiv_pos_as_xyz
  1  'x, y, z'
loop_
 _atom_site_type_symbol
 _atom_site_label
 _atom_site_symmetry_multiplicity
 _atom_site_fract_x
 _atom_site_fract_y
 _atom_site_fract_z
 _atom_site_occupancy
  Zn  Zn0  1  0.07851000  0.55672000  0.91113000  1
  Zn  Zn1  1  0.11572000  0.95666000  0.41616000  1
  Zn  Zn2  1  0.38428000  0.45666000  0.08384000  1
  Zn  Zn3  1  0.42149000  0.05672000  0.58887000  1
  Zn  Zn4  1  0.57851000  0.94328000  0.41113000  1
  Zn  Zn5  1  0.61572000  0.54334000  0.91616000  1
  Zn  Zn6  1  0.88428000  0.04334000  0.58384000  1
  Zn  Zn7  1  0.92149000  0.44328000  0.08887000  1
  P  P8  1  0.14551000  0.56865000  0.08550000  1
  P  P9  1  0.15533000  0.95375000  0.59053000  1
  P  P10  1  0.34467000  0.45375000  0.90947000  1
  P  P11  1  0.35449000  0.06865000  0.41450000  1
  P  P12  1  0.64551000  0.93135000  0.58550000  1
  P  P13  1  0.65533000  0.54625000  0.09053000  1
  P  P14  1  0.84467000  0.04625000  0.40947000  1
  P  P15  1  0.85449000  0.43135000  0.91450000  1
  H  H16  1  0.00390000  0.94700000  0.72150000  1
  H  H17  1  0.02320000  0.29690000  0.90160000  1
  H  H18  1  0.02910000  0.18050000  0.83040000  1
  H  H19  1  0.03590000  0.14820000  0.18850000  1
  H  H20  1  0.20460000  0.69980000  0.71850000  1
  H  H21  1  0.23250000  0.12290000  0.28120000  1
  H  H22  1  0.23670000  0.79210000  0.62370000  1
  H  H23  1  0.24720000  0.23450000  0.20270000  1
  H  H24  1  0.25280000  0.73450000  0.29730000  1
  H  H25  1  0.26330000  0.29210000  0.87630000  1
  H  H26  1  0.26750000  0.62290000  0.21880000  1
  H  H27  1  0.29540000  0.19980000  0.78150000  1
  H  H28  1  0.46410000  0.64820000  0.31150000  1
  H  H29  1  0.47090000  0.68050000  0.66960000  1
  H  H30  1  0.47680000  0.79690000  0.59840000  1
  H  H31  1  0.49610000  0.44700000  0.77850000  1
  H  H32  1  0.50390000  0.55300000  0.22150000  1
  H  H33  1  0.52320000  0.20310000  0.40160000  1
  H  H34  1  0.52910000  0.31950000  0.33040000  1
  H  H35  1  0.53590000  0.35180000  0.68850000  1
  H  H36  1  0.70460000  0.80020000  0.21850000  1
  H  H37  1  0.73250000  0.37710000  0.78120000  1
  H  H38  1  0.73670000  0.70790000  0.12370000  1
  H  H39  1  0.74720000  0.26550000  0.70270000  1
  H  H40  1  0.75280000  0.76550000  0.79730000  1
  H  H41  1  0.76330000  0.20790000  0.37630000  1
  H  H42  1  0.76750000  0.87710000  0.71880000  1
  H  H43  1  0.79540000  0.30020000  0.28150000  1
  H  H44  1  0.96410000  0.85180000  0.81150000  1
  H  H45  1  0.97090000  0.81950000  0.16960000  1
  H  H46  1  0.97680000  0.70310000  0.09840000  1
  H  H47  1  0.99610000  0.05300000  0.27850000  1
  C  C48  1  0.01950000  0.83970000  0.77390000  1
  C  C49  1  0.02960000  0.77960000  0.18040000  1
  C  C50  1  0.03470000  0.71060000  0.13690000  1
  C  C51  1  0.04310000  0.89670000  0.71980000  1
  C  C52  1  0.04610000  0.70180000  0.83130000  1
  C  C53  1  0.07740000  0.76440000  0.77310000  1
  C  C54  1  0.11110000  0.86700000  0.28440000  1
  C  C55  1  0.11230000  0.78940000  0.24040000  1
  C  C56  1  0.12440000  0.88000000  0.66280000  1
  C  C57  1  0.12610000  0.65170000  0.15020000  1
  C  C58  1  0.16150000  0.74880000  0.71810000  1
  C  C59  1  0.18290000  0.80490000  0.66200000  1
  C  C60  1  0.19950000  0.72960000  0.25610000  1
  C  C61  1  0.20660000  0.66190000  0.20950000  1
  C  C62  1  0.29340000  0.16190000  0.29050000  1
  C  C63  1  0.30050000  0.22960000  0.24390000  1
  C  C64  1  0.31710000  0.30490000  0.83800000  1
  C  C65  1  0.33850000  0.24880000  0.78190000  1
  C  C66  1  0.37390000  0.15170000  0.34980000  1
  C  C67  1  0.37560000  0.38000000  0.83720000  1
  C  C68  1  0.38770000  0.28940000  0.25960000  1
  C  C69  1  0.38890000  0.36700000  0.21560000  1
  C  C70  1  0.42260000  0.26440000  0.72690000  1
  C  C71  1  0.45390000  0.20180000  0.66870000  1
  C  C72  1  0.45690000  0.39670000  0.78020000  1
  C  C73  1  0.46530000  0.21060000  0.36310000  1
  C  C74  1  0.47040000  0.27960000  0.31960000  1
  C  C75  1  0.48050000  0.33970000  0.72610000  1
  C  C76  1  0.51950000  0.66030000  0.27390000  1
  C  C77  1  0.52960000  0.72040000  0.68040000  1
  C  C78  1  0.53470000  0.78940000  0.63690000  1
  C  C79  1  0.54310000  0.60330000  0.21980000  1
  C  C80  1  0.54610000  0.79820000  0.33130000  1
  C  C81  1  0.57740000  0.73560000  0.27310000  1
  C  C82  1  0.61110000  0.63300000  0.78440000  1
  C  C83  1  0.61230000  0.71060000  0.74040000  1
  C  C84  1  0.62440000  0.62000000  0.16280000  1
  C  C85  1  0.62610000  0.84830000  0.65020000  1
  C  C86  1  0.66150000  0.75120000  0.21810000  1
  C  C87  1  0.68290000  0.69510000  0.16200000  1
  C  C88  1  0.69950000  0.77040000  0.75610000  1
  C  C89  1  0.70660000  0.83810000  0.70950000  1
  C  C90  1  0.79340000  0.33810000  0.79050000  1
  C  C91  1  0.80050000  0.27040000  0.74390000  1
  C  C92  1  0.81710000  0.19510000  0.33800000  1
  C  C93  1  0.83850000  0.25120000  0.28190000  1
  C  C94  1  0.87390000  0.34830000  0.84980000  1
  C  C95  1  0.87560000  0.12000000  0.33720000  1
  C  C96  1  0.88770000  0.21060000  0.75960000  1
  C  C97  1  0.88890000  0.13300000  0.71560000  1
  C  C98  1  0.92260000  0.23560000  0.22690000  1
  C  C99  1  0.95390000  0.29820000  0.16870000  1
  C  C100  1  0.95690000  0.10330000  0.28020000  1
  C  C101  1  0.96530000  0.28940000  0.86310000  1
  C  C102  1  0.97040000  0.22040000  0.81960000  1
  C  C103  1  0.98050000  0.16030000  0.22610000  1
  O  O104  1  0.04610000  0.28980000  0.13080000  1
  O  O105  1  0.06350000  0.02364000  0.59699000  1
  O  O106  1  0.07750000  0.49420000  0.11190000  1
  O  O107  1  0.08570000  0.93140000  0.25470000  1
  O  O108  1  0.09690000  0.60170000  0.01119000  1
  O  O109  1  0.11890000  0.64100000  0.83677000  1
  O  O110  1  0.13560000  0.90749000  0.51658000  1
  O  O111  1  0.14050000  0.86090000  0.35379000  1
  O  O112  1  0.21200000  0.47970000  0.89700000  1
  O  O113  1  0.21430000  0.05436000  0.41528000  1
  O  O114  1  0.28570000  0.55436000  0.08472000  1
  O  O115  1  0.28800000  0.97970000  0.60300000  1
  O  O116  1  0.35950000  0.36090000  0.14621000  1
  O  O117  1  0.36440000  0.40749000  0.98342000  1
  O  O118  1  0.38110000  0.14100000  0.66323000  1
  O  O119  1  0.40310000  0.10170000  0.48881000  1
  O  O120  1  0.41430000  0.43140000  0.24530000  1
  O  O121  1  0.42250000  0.99420000  0.38810000  1
  O  O122  1  0.43650000  0.52364000  0.90301000  1
  O  O123  1  0.45390000  0.78980000  0.36920000  1
  O  O124  1  0.54610000  0.21020000  0.63080000  1
  O  O125  1  0.56350000  0.47636000  0.09699000  1
  O  O126  1  0.57750000  0.00580000  0.61190000  1
  O  O127  1  0.58570000  0.56860000  0.75470000  1
  O  O128  1  0.59690000  0.89830000  0.51119000  1
  O  O129  1  0.61890000  0.85900000  0.33677000  1
  O  O130  1  0.63560000  0.59251000  0.01658000  1
  O  O131  1  0.64050000  0.63910000  0.85379000  1
  O  O132  1  0.71200000  0.02030000  0.39700000  1
  O  O133  1  0.71430000  0.44564000  0.91528000  1
  O  O134  1  0.78570000  0.94564000  0.58472000  1
  O  O135  1  0.78800000  0.52030000  0.10300000  1
  O  O136  1  0.85950000  0.13910000  0.64621000  1
  O  O137  1  0.86440000  0.09251000  0.48342000  1
  O  O138  1  0.88110000  0.35900000  0.16323000  1
  O  O139  1  0.90310000  0.39830000  0.98881000  1
  O  O140  1  0.91430000  0.06860000  0.74530000  1
  O  O141  1  0.92250000  0.50580000  0.88810000  1
  O  O142  1  0.93650000  0.97636000  0.40301000  1
  O  O143  1  0.95390000  0.71020000  0.86920000  1
