# generated using pymatgen
data_ErHC7(NO3)2
_symmetry_space_group_name_H-M   'P 1'
_cell_length_a   6.54950000
_cell_length_b   9.53840000
_cell_length_c   17.16930000
_cell_angle_alpha   90.00000000
_cell_angle_beta   90.00000000
_cell_angle_gamma   90.00000000
_symmetry_Int_Tables_number   1
_chemical_formula_structural   ErHC7(NO3)2
_chemical_formula_sum   'Er4 H4 C28 N8 O24'
_cell_volume   1072.59623101
_cell_formula_units_Z   4
loop_
 _symmetry_equiv_pos_site_id
 _symmetry_equiv_pos_as_xyz
  1  'x, y, z'
loop_
 _atom_site_type_symbol
 _atom_site_label
 _atom_site_symmetry_multiplicity
 _atom_site_fract_x
 _atom_site_fract_y
 _atom_site_fract_z
 _atom_site_occupancy
  Er  Er0  1  0.25000000  0.21662000  0.37965000  1
  Er  Er1  1  0.25000000  0.71662000  0.12035000  1
  Er  Er2  1  0.75000000  0.28338000  0.87965000  1
  Er  Er3  1  0.75000000  0.78338000  0.62035000  1
  H  H4  1  0.25000000  0.27110000  0.15190000  1
  H  H5  1  0.25000000  0.77110000  0.34810000  1
  H  H6  1  0.75000000  0.22890000  0.65190000  1
  H  H7  1  0.75000000  0.72890000  0.84810000  1
  C  C8  1  0.25000000  0.00820000  0.21670000  1
  C  C9  1  0.25000000  0.06220000  0.13450000  1
  C  C10  1  0.25000000  0.14030000  0.98400000  1
  C  C11  1  0.25000000  0.19160000  0.90060000  1
  C  C12  1  0.25000000  0.20270000  0.11340000  1
  C  C13  1  0.25000000  0.37090000  0.54890000  1
  C  C14  1  0.25000000  0.49790000  0.49460000  1
  C  C15  1  0.25000000  0.50820000  0.28330000  1
  C  C16  1  0.25000000  0.56220000  0.36550000  1
  C  C17  1  0.25000000  0.64030000  0.51600000  1
  C  C18  1  0.25000000  0.69160000  0.59940000  1
  C  C19  1  0.25000000  0.70270000  0.38660000  1
  C  C20  1  0.25000000  0.87090000  0.95110000  1
  C  C21  1  0.25000000  0.99790000  0.00540000  1
  C  C22  1  0.75000000  0.00210000  0.99460000  1
  C  C23  1  0.75000000  0.12910000  0.04890000  1
  C  C24  1  0.75000000  0.29730000  0.61340000  1
  C  C25  1  0.75000000  0.30840000  0.40060000  1
  C  C26  1  0.75000000  0.35970000  0.48400000  1
  C  C27  1  0.75000000  0.43780000  0.63450000  1
  C  C28  1  0.75000000  0.49180000  0.71670000  1
  C  C29  1  0.75000000  0.50210000  0.50540000  1
  C  C30  1  0.75000000  0.62910000  0.45110000  1
  C  C31  1  0.75000000  0.79730000  0.88660000  1
  C  C32  1  0.75000000  0.80840000  0.09940000  1
  C  C33  1  0.75000000  0.85970000  0.01600000  1
  C  C34  1  0.75000000  0.93780000  0.86550000  1
  C  C35  1  0.75000000  0.99180000  0.78330000  1
  N  N36  1  0.25000000  0.24140000  0.03840000  1
  N  N37  1  0.25000000  0.46350000  0.41943000  1
  N  N38  1  0.25000000  0.74140000  0.46160000  1
  N  N39  1  0.25000000  0.96350000  0.08057000  1
  N  N40  1  0.75000000  0.03650000  0.91943000  1
  N  N41  1  0.75000000  0.25860000  0.53840000  1
  N  N42  1  0.75000000  0.53650000  0.58057000  1
  N  N43  1  0.75000000  0.75860000  0.96160000  1
  O  O44  1  0.08160000  0.21310000  0.86922000  1
  O  O45  1  0.08160000  0.71310000  0.63078000  1
  O  O46  1  0.25000000  0.09500000  0.27014000  1
  O  O47  1  0.25000000  0.25370000  0.51299000  1
  O  O48  1  0.25000000  0.37820000  0.27557000  1
  O  O49  1  0.25000000  0.39000000  0.61918000  1
  O  O50  1  0.25000000  0.59500000  0.22986000  1
  O  O51  1  0.25000000  0.75370000  0.98701000  1
  O  O52  1  0.25000000  0.87820000  0.22443000  1
  O  O53  1  0.25000000  0.89000000  0.88082000  1
  O  O54  1  0.41840000  0.21310000  0.86922000  1
  O  O55  1  0.41840000  0.71310000  0.63078000  1
  O  O56  1  0.58160000  0.28690000  0.36922000  1
  O  O57  1  0.58160000  0.78690000  0.13078000  1
  O  O58  1  0.75000000  0.11000000  0.11918000  1
  O  O59  1  0.75000000  0.12180000  0.77557000  1
  O  O60  1  0.75000000  0.24630000  0.01299000  1
  O  O61  1  0.75000000  0.40500000  0.77014000  1
  O  O62  1  0.75000000  0.61000000  0.38082000  1
  O  O63  1  0.75000000  0.62180000  0.72443000  1
  O  O64  1  0.75000000  0.74630000  0.48701000  1
  O  O65  1  0.75000000  0.90500000  0.72986000  1
  O  O66  1  0.91840000  0.28690000  0.36922000  1
  O  O67  1  0.91840000  0.78690000  0.13078000  1
