# generated using pymatgen
data_Zn2H11C12N9O2
_symmetry_space_group_name_H-M   'P 1'
_cell_length_a   18.02080000
_cell_length_b   27.01110000
_cell_length_c   27.01110000
_cell_angle_alpha   120.00000000
_cell_angle_beta   90.00000000
_cell_angle_gamma   90.00000000
_symmetry_Int_Tables_number   1
_chemical_formula_structural   Zn2H11C12N9O2
_chemical_formula_sum   'Zn24 H132 C144 N108 O24'
_cell_volume   11386.47350621
_cell_formula_units_Z   12
loop_
 _symmetry_equiv_pos_site_id
 _symmetry_equiv_pos_as_xyz
  1  'x, y, z'
loop_
 _atom_site_type_symbol
 _atom_site_label
 _atom_site_symmetry_multiplicity
 _atom_site_fract_x
 _atom_site_fract_y
 _atom_site_fract_z
 _atom_site_occupancy
  Zn  Zn0  1  0.07966000  0.11074000  0.66722000  1
  Zn  Zn1  1  0.07966000  0.33278000  0.88926000  1
  Zn  Zn2  1  0.07966000  0.11074000  0.44352000  1
  Zn  Zn3  1  0.07966000  0.55648000  0.88926000  1
  Zn  Zn4  1  0.07966000  0.33278000  0.44352000  1
  Zn  Zn5  1  0.07966000  0.55648000  0.66722000  1
  Zn  Zn6  1  0.42034000  0.11074000  0.66722000  1
  Zn  Zn7  1  0.42034000  0.33278000  0.88926000  1
  Zn  Zn8  1  0.42034000  0.11074000  0.44352000  1
  Zn  Zn9  1  0.42034000  0.55648000  0.88926000  1
  Zn  Zn10  1  0.42034000  0.33278000  0.44352000  1
  Zn  Zn11  1  0.42034000  0.55648000  0.66722000  1
  Zn  Zn12  1  0.57966000  0.44352000  0.33278000  1
  Zn  Zn13  1  0.57966000  0.66722000  0.55648000  1
  Zn  Zn14  1  0.57966000  0.44352000  0.11074000  1
  Zn  Zn15  1  0.57966000  0.88926000  0.55648000  1
  Zn  Zn16  1  0.57966000  0.66722000  0.11074000  1
  Zn  Zn17  1  0.57966000  0.88926000  0.33278000  1
  Zn  Zn18  1  0.92034000  0.44352000  0.33278000  1
  Zn  Zn19  1  0.92034000  0.66722000  0.55648000  1
  Zn  Zn20  1  0.92034000  0.44352000  0.11074000  1
  Zn  Zn21  1  0.92034000  0.88926000  0.55648000  1
  Zn  Zn22  1  0.92034000  0.66722000  0.11074000  1
  Zn  Zn23  1  0.92034000  0.88926000  0.33278000  1
  H  H24  1  1.00000000  0.57850000  0.57850000  1
  H  H25  1  0.00000000  0.00000000  0.57850000  1
  H  H26  1  1.00000000  0.42150000  1.00000000  1
  H  H27  1  1.00000000  0.00000000  0.42150000  1
  H  H28  1  1.00000000  0.57850000  1.00000000  1
  H  H29  1  0.03040000  0.04640000  0.73800000  1
  H  H30  1  0.03040000  0.26200000  0.95360000  1
  H  H31  1  0.03040000  0.04640000  0.30840000  1
  H  H32  1  0.03040000  0.69160000  0.95360000  1
  H  H33  1  0.03040000  0.26200000  0.30840000  1
  H  H34  1  0.03040000  0.69160000  0.73800000  1
  H  H35  1  0.05480000  0.39810000  0.24470000  1
  H  H36  1  0.05480000  0.75530000  0.60190000  1
  H  H37  1  0.05480000  0.39810000  0.15340000  1
  H  H38  1  0.05480000  0.84660000  0.60190000  1
  H  H39  1  0.05480000  0.75530000  0.15340000  1
  H  H40  1  0.05480000  0.84660000  0.24470000  1
  H  H41  1  0.06800000  0.50890000  0.40130000  1
  H  H42  1  0.06800000  0.59870000  0.49110000  1
  H  H43  1  0.06800000  0.50890000  0.10760000  1
  H  H44  1  0.06800000  0.89240000  0.49110000  1
  H  H45  1  0.06800000  0.59870000  0.10760000  1
  H  H46  1  0.06800000  0.89240000  0.40130000  1
  H  H47  1  0.12730000  0.09230000  0.54615000  1
  H  H48  1  0.12730000  0.45385000  0.90770000  1
  H  H49  1  0.12730000  0.45385000  0.54615000  1
  H  H50  1  0.12890000  0.22340000  0.77660000  1
  H  H51  1  0.12890000  0.22340000  0.44680000  1
  H  H52  1  0.12890000  0.55320000  0.77660000  1
  H  H53  1  0.18210000  0.01540000  0.66810000  1
  H  H54  1  0.18210000  0.33190000  0.98460000  1
  H  H55  1  0.18210000  0.01540000  0.34730000  1
  H  H56  1  0.18210000  0.65270000  0.98460000  1
  H  H57  1  0.18210000  0.33190000  0.34730000  1
  H  H58  1  0.18210000  0.65270000  0.66810000  1
  H  H59  1  0.31790000  0.01540000  0.66810000  1
  H  H60  1  0.31790000  0.33190000  0.98460000  1
  H  H61  1  0.31790000  0.01540000  0.34730000  1
  H  H62  1  0.31790000  0.65270000  0.98460000  1
  H  H63  1  0.31790000  0.33190000  0.34730000  1
  H  H64  1  0.31790000  0.65270000  0.66810000  1
  H  H65  1  0.37110000  0.22340000  0.77660000  1
  H  H66  1  0.37110000  0.22340000  0.44680000  1
  H  H67  1  0.37110000  0.55320000  0.77660000  1
  H  H68  1  0.37270000  0.09230000  0.54615000  1
  H  H69  1  0.37270000  0.45385000  0.90770000  1
  H  H70  1  0.37270000  0.45385000  0.54615000  1
  H  H71  1  0.43200000  0.50890000  0.40130000  1
  H  H72  1  0.43200000  0.59870000  0.49110000  1
  H  H73  1  0.43200000  0.50890000  0.10760000  1
  H  H74  1  0.43200000  0.89240000  0.49110000  1
  H  H75  1  0.43200000  0.59870000  0.10760000  1
  H  H76  1  0.43200000  0.89240000  0.40130000  1
  H  H77  1  0.44520000  0.39810000  0.24470000  1
  H  H78  1  0.44520000  0.75530000  0.60190000  1
  H  H79  1  0.44520000  0.39810000  0.15340000  1
  H  H80  1  0.44520000  0.84660000  0.60190000  1
  H  H81  1  0.44520000  0.75530000  0.15340000  1
  H  H82  1  0.44520000  0.84660000  0.24470000  1
  H  H83  1  0.46960000  0.04640000  0.73800000  1
  H  H84  1  0.46960000  0.26200000  0.95360000  1
  H  H85  1  0.46960000  0.04640000  0.30840000  1
  H  H86  1  0.46960000  0.69160000  0.95360000  1
  H  H87  1  0.46960000  0.26200000  0.30840000  1
  H  H88  1  0.46960000  0.69160000  0.73800000  1
  H  H89  1  0.50000000  0.42150000  0.42150000  1
  H  H90  1  0.50000000  0.57850000  0.57850000  1
  H  H91  1  0.50000000  0.00000000  0.57850000  1
  H  H92  1  0.50000000  0.42150000  1.00000000  1
  H  H93  1  0.50000000  0.00000000  0.42150000  1
  H  H94  1  0.50000000  0.57850000  1.00000000  1
  H  H95  1  0.53040000  0.30840000  0.26200000  1
  H  H96  1  0.53040000  0.73800000  0.69160000  1
  H  H97  1  0.53040000  0.30840000  0.04640000  1
  H  H98  1  0.53040000  0.95360000  0.69160000  1
  H  H99  1  0.53040000  0.73800000  0.04640000  1
  H  H100  1  0.53040000  0.95360000  0.26200000  1
  H  H101  1  0.55480000  0.15340000  0.75530000  1
  H  H102  1  0.55480000  0.24470000  0.84660000  1
  H  H103  1  0.55480000  0.15340000  0.39810000  1
  H  H104  1  0.55480000  0.60190000  0.84660000  1
  H  H105  1  0.55480000  0.24470000  0.39810000  1
  H  H106  1  0.55480000  0.60190000  0.75530000  1
  H  H107  1  0.56800000  0.10760000  0.59870000  1
  H  H108  1  0.56800000  0.40130000  0.89240000  1
  H  H109  1  0.56800000  0.10760000  0.50890000  1
  H  H110  1  0.56800000  0.49110000  0.89240000  1
  H  H111  1  0.56800000  0.40130000  0.50890000  1
  H  H112  1  0.56800000  0.49110000  0.59870000  1
  H  H113  1  0.62730000  0.54615000  0.45385000  1
  H  H114  1  0.62730000  0.54615000  0.09230000  1
  H  H115  1  0.62730000  0.90770000  0.45385000  1
  H  H116  1  0.62890000  0.44680000  0.22340000  1
  H  H117  1  0.62890000  0.77660000  0.55320000  1
  H  H118  1  0.62890000  0.77660000  0.22340000  1
  H  H119  1  0.68210000  0.34730000  0.33190000  1
  H  H120  1  0.68210000  0.66810000  0.65270000  1
  H  H121  1  0.68210000  0.34730000  0.01540000  1
  H  H122  1  0.68210000  0.98460000  0.65270000  1
  H  H123  1  0.68210000  0.66810000  0.01540000  1
  H  H124  1  0.68210000  0.98460000  0.33190000  1
  H  H125  1  0.81790000  0.34730000  0.33190000  1
  H  H126  1  0.81790000  0.66810000  0.65270000  1
  H  H127  1  0.81790000  0.34730000  0.01540000  1
  H  H128  1  0.81790000  0.98460000  0.65270000  1
  H  H129  1  0.81790000  0.66810000  0.01540000  1
  H  H130  1  0.81790000  0.98460000  0.33190000  1
  H  H131  1  0.87110000  0.44680000  0.22340000  1
  H  H132  1  0.87110000  0.77660000  0.55320000  1
  H  H133  1  0.87110000  0.77660000  0.22340000  1
  H  H134  1  0.87270000  0.54615000  0.45385000  1
  H  H135  1  0.87270000  0.54615000  0.09230000  1
  H  H136  1  0.87270000  0.90770000  0.45385000  1
  H  H137  1  0.93200000  0.10760000  0.59870000  1
  H  H138  1  0.93200000  0.40130000  0.89240000  1
  H  H139  1  0.93200000  0.10760000  0.50890000  1
  H  H140  1  0.93200000  0.49110000  0.89240000  1
  H  H141  1  0.93200000  0.40130000  0.50890000  1
  H  H142  1  0.93200000  0.49110000  0.59870000  1
  H  H143  1  0.94520000  0.15340000  0.75530000  1
  H  H144  1  0.94520000  0.24470000  0.84660000  1
  H  H145  1  0.94520000  0.15340000  0.39810000  1
  H  H146  1  0.94520000  0.60190000  0.84660000  1
  H  H147  1  0.94520000  0.24470000  0.39810000  1
  H  H148  1  0.94520000  0.60190000  0.75530000  1
  H  H149  1  0.96960000  0.30840000  0.26200000  1
  H  H150  1  0.96960000  0.73800000  0.69160000  1
  H  H151  1  0.96960000  0.30840000  0.04640000  1
  H  H152  1  0.96960000  0.95360000  0.69160000  1
  H  H153  1  0.96960000  0.73800000  0.04640000  1
  H  H154  1  0.96960000  0.95360000  0.26200000  1
  H  H155  1  1.00000000  0.42150000  0.42150000  1
  C  C156  1  0.00000000  0.38708000  1.00000000  1
  C  C157  1  1.00000000  0.61292000  1.00000000  1
  C  C158  1  0.01700000  0.02573000  0.69961000  1
  C  C159  1  0.01700000  0.30039000  0.97427000  1
  C  C160  1  0.01700000  0.02573000  0.32612000  1
  C  C161  1  0.01700000  0.67388000  0.97427000  1
  C  C162  1  0.01700000  0.30039000  0.32612000  1
  C  C163  1  0.01700000  0.67388000  0.69961000  1
  C  C164  1  0.01860000  0.41420000  0.23250000  1
  C  C165  1  0.01860000  0.76750000  0.58580000  1
  C  C166  1  0.01860000  0.41420000  0.18170000  1
  C  C167  1  0.01860000  0.81830000  0.58580000  1
  C  C168  1  0.01860000  0.76750000  0.18170000  1
  C  C169  1  0.01860000  0.81830000  0.23250000  1
  C  C170  1  0.02640000  0.53070000  0.41950000  1
  C  C171  1  0.02640000  0.58050000  0.46930000  1
  C  C172  1  0.02640000  0.53070000  0.11120000  1
  C  C173  1  0.02640000  0.88880000  0.46930000  1
  C  C174  1  0.02640000  0.58050000  0.11120000  1
  C  C175  1  0.02640000  0.88880000  0.41950000  1
  C  C176  1  0.07740000  0.22206000  0.77794000  1
  C  C177  1  0.07740000  0.22206000  0.44412000  1
  C  C178  1  0.07740000  0.55588000  0.77794000  1
  C  C179  1  0.07950000  0.10720000  0.55360000  1
  C  C180  1  0.07950000  0.44640000  0.89280000  1
  C  C181  1  0.07950000  0.44640000  0.55360000  1
  C  C182  1  0.21200000  0.04360000  0.66840000  1
  C  C183  1  0.21200000  0.33160000  0.95640000  1
  C  C184  1  0.21200000  0.04360000  0.37520000  1
  C  C185  1  0.21200000  0.62480000  0.95640000  1
  C  C186  1  0.21200000  0.33160000  0.37520000  1
  C  C187  1  0.21200000  0.62480000  0.66840000  1
  C  C188  1  0.25000000  0.11563000  0.66847000  1
  C  C189  1  0.25000000  0.33153000  0.88437000  1
  C  C190  1  0.25000000  0.11563000  0.44716000  1
  C  C191  1  0.25000000  0.55284000  0.88437000  1
  C  C192  1  0.25000000  0.33153000  0.44716000  1
  C  C193  1  0.25000000  0.55284000  0.66847000  1
  C  C194  1  0.28800000  0.04360000  0.66840000  1
  C  C195  1  0.28800000  0.33160000  0.95640000  1
  C  C196  1  0.28800000  0.04360000  0.37520000  1
  C  C197  1  0.28800000  0.62480000  0.95640000  1
  C  C198  1  0.28800000  0.33160000  0.37520000  1
  C  C199  1  0.28800000  0.62480000  0.66840000  1
  C  C200  1  0.42050000  0.10720000  0.55360000  1
  C  C201  1  0.42050000  0.44640000  0.89280000  1
  C  C202  1  0.42050000  0.44640000  0.55360000  1
  C  C203  1  0.42260000  0.22206000  0.77794000  1
  C  C204  1  0.42260000  0.22206000  0.44412000  1
  C  C205  1  0.42260000  0.55588000  0.77794000  1
  C  C206  1  0.47360000  0.53070000  0.41950000  1
  C  C207  1  0.47360000  0.58050000  0.46930000  1
  C  C208  1  0.47360000  0.53070000  0.11120000  1
  C  C209  1  0.47360000  0.88880000  0.46930000  1
  C  C210  1  0.47360000  0.58050000  0.11120000  1
  C  C211  1  0.47360000  0.88880000  0.41950000  1
  C  C212  1  0.48140000  0.41420000  0.23250000  1
  C  C213  1  0.48140000  0.76750000  0.58580000  1
  C  C214  1  0.48140000  0.41420000  0.18170000  1
  C  C215  1  0.48140000  0.81830000  0.58580000  1
  C  C216  1  0.48140000  0.76750000  0.18170000  1
  C  C217  1  0.48140000  0.81830000  0.23250000  1
  C  C218  1  0.48300000  0.02573000  0.69961000  1
  C  C219  1  0.48300000  0.30039000  0.97427000  1
  C  C220  1  0.48300000  0.02573000  0.32612000  1
  C  C221  1  0.48300000  0.67388000  0.97427000  1
  C  C222  1  0.48300000  0.30039000  0.32612000  1
  C  C223  1  0.48300000  0.67388000  0.69961000  1
  C  C224  1  0.50000000  0.38708000  0.38708000  1
  C  C225  1  0.50000000  0.61292000  0.61292000  1
  C  C226  1  0.50000000  0.00000000  0.61292000  1
  C  C227  1  0.50000000  0.38708000  1.00000000  1
  C  C228  1  0.50000000  0.00000000  0.38708000  1
  C  C229  1  0.50000000  0.61292000  0.00000000  1
  C  C230  1  0.51700000  0.32612000  0.30039000  1
  C  C231  1  0.51700000  0.69961000  0.67388000  1
  C  C232  1  0.51700000  0.32612000  0.02573000  1
  C  C233  1  0.51700000  0.97427000  0.67388000  1
  C  C234  1  0.51700000  0.69961000  0.02573000  1
  C  C235  1  0.51700000  0.97427000  0.30039000  1
  C  C236  1  0.51860000  0.18170000  0.76750000  1
  C  C237  1  0.51860000  0.23250000  0.81830000  1
  C  C238  1  0.51860000  0.18170000  0.41420000  1
  C  C239  1  0.51860000  0.58580000  0.81830000  1
  C  C240  1  0.51860000  0.23250000  0.41420000  1
  C  C241  1  0.51860000  0.58580000  0.76750000  1
  C  C242  1  0.52640000  0.11120000  0.58050000  1
  C  C243  1  0.52640000  0.41950000  0.88880000  1
  C  C244  1  0.52640000  0.11120000  0.53070000  1
  C  C245  1  0.52640000  0.46930000  0.88880000  1
  C  C246  1  0.52640000  0.41950000  0.53070000  1
  C  C247  1  0.52640000  0.46930000  0.58050000  1
  C  C248  1  0.57740000  0.44412000  0.22206000  1
  C  C249  1  0.57740000  0.77794000  0.55588000  1
  C  C250  1  0.57740000  0.77794000  0.22206000  1
  C  C251  1  0.57950000  0.55360000  0.44640000  1
  C  C252  1  0.57950000  0.55360000  0.10720000  1
  C  C253  1  0.57950000  0.89280000  0.44640000  1
  C  C254  1  0.71200000  0.37520000  0.33160000  1
  C  C255  1  0.71200000  0.66840000  0.62480000  1
  C  C256  1  0.71200000  0.37520000  0.04360000  1
  C  C257  1  0.71200000  0.95640000  0.62480000  1
  C  C258  1  0.71200000  0.66840000  0.04360000  1
  C  C259  1  0.71200000  0.95640000  0.33160000  1
  C  C260  1  0.75000000  0.44716000  0.33153000  1
  C  C261  1  0.75000000  0.66847000  0.55284000  1
  C  C262  1  0.75000000  0.44716000  0.11563000  1
  C  C263  1  0.75000000  0.88437000  0.55284000  1
  C  C264  1  0.75000000  0.66847000  0.11563000  1
  C  C265  1  0.75000000  0.88437000  0.33153000  1
  C  C266  1  0.78800000  0.37520000  0.33160000  1
  C  C267  1  0.78800000  0.66840000  0.62480000  1
  C  C268  1  0.78800000  0.37520000  0.04360000  1
  C  C269  1  0.78800000  0.95640000  0.62480000  1
  C  C270  1  0.78800000  0.66840000  0.04360000  1
  C  C271  1  0.78800000  0.95640000  0.33160000  1
  C  C272  1  0.92050000  0.55360000  0.44640000  1
  C  C273  1  0.92050000  0.55360000  0.10720000  1
  C  C274  1  0.92050000  0.89280000  0.44640000  1
  C  C275  1  0.92260000  0.44412000  0.22206000  1
  C  C276  1  0.92260000  0.77794000  0.55588000  1
  C  C277  1  0.92260000  0.77794000  0.22206000  1
  C  C278  1  0.97360000  0.11120000  0.58050000  1
  C  C279  1  0.97360000  0.41950000  0.88880000  1
  C  C280  1  0.97360000  0.11120000  0.53070000  1
  C  C281  1  0.97360000  0.46930000  0.88880000  1
  C  C282  1  0.97360000  0.41950000  0.53070000  1
  C  C283  1  0.97360000  0.46930000  0.58050000  1
  C  C284  1  0.98140000  0.18170000  0.76750000  1
  C  C285  1  0.98140000  0.23250000  0.81830000  1
  C  C286  1  0.98140000  0.18170000  0.41420000  1
  C  C287  1  0.98140000  0.58580000  0.81830000  1
  C  C288  1  0.98140000  0.23250000  0.41420000  1
  C  C289  1  0.98140000  0.58580000  0.76750000  1
  C  C290  1  0.98300000  0.32612000  0.30039000  1
  C  C291  1  0.98300000  0.69961000  0.67388000  1
  C  C292  1  0.98300000  0.32612000  0.02573000  1
  C  C293  1  0.98300000  0.97427000  0.67388000  1
  C  C294  1  0.98300000  0.69961000  0.02573000  1
  C  C295  1  0.98300000  0.97427000  0.30039000  1
  C  C296  1  1.00000000  0.38708000  0.38708000  1
  C  C297  1  1.00000000  0.61292000  0.61292000  1
  C  C298  1  0.00000000  0.00000000  0.61292000  1
  C  C299  1  1.00000000  0.00000000  0.38708000  1
  N  N300  1  0.02836000  0.04231000  0.66040000  1
  N  N301  1  0.02836000  0.33960000  0.95769000  1
  N  N302  1  0.02836000  0.04231000  0.38191000  1
  N  N303  1  0.02836000  0.61809000  0.95769000  1
  N  N304  1  0.02836000  0.33960000  0.38191000  1
  N  N305  1  0.02836000  0.61809000  0.66040000  1
  N  N306  1  0.04544000  0.17988000  0.73738000  1
  N  N307  1  0.04544000  0.26262000  0.82012000  1
  N  N308  1  0.04544000  0.17988000  0.44250000  1
  N  N309  1  0.04544000  0.55750000  0.82012000  1
  N  N310  1  0.04544000  0.26262000  0.44250000  1
  N  N311  1  0.04544000  0.55750000  0.73738000  1
  N  N312  1  0.04620000  0.11761000  0.60020000  1
  N  N313  1  0.04620000  0.39980000  0.88239000  1
  N  N314  1  0.04620000  0.11761000  0.51741000  1
  N  N315  1  0.04620000  0.48259000  0.88239000  1
  N  N316  1  0.04620000  0.39980000  0.51741000  1
  N  N317  1  0.04620000  0.48259000  0.60020000  1
  N  N318  1  0.18760000  0.09101000  0.66891000  1
  N  N319  1  0.18760000  0.33109000  0.90899000  1
  N  N320  1  0.18760000  0.09101000  0.42210000  1
  N  N321  1  0.18760000  0.57790000  0.90899000  1
  N  N322  1  0.18760000  0.33109000  0.42210000  1
  N  N323  1  0.18760000  0.57790000  0.66891000  1
  N  N324  1  0.25000000  0.16954000  0.66801000  1
  N  N325  1  0.25000000  0.33199000  0.83046000  1
  N  N326  1  0.25000000  0.16954000  0.50153000  1
  N  N327  1  0.25000000  0.49847000  0.83046000  1
  N  N328  1  0.25000000  0.33199000  0.50153000  1
  N  N329  1  0.25000000  0.49847000  0.66801000  1
  N  N330  1  0.31240000  0.09101000  0.66891000  1
  N  N331  1  0.31240000  0.33109000  0.90899000  1
  N  N332  1  0.31240000  0.09101000  0.42210000  1
  N  N333  1  0.31240000  0.57790000  0.90899000  1
  N  N334  1  0.31240000  0.33109000  0.42210000  1
  N  N335  1  0.31240000  0.57790000  0.66891000  1
  N  N336  1  0.45380000  0.11761000  0.60020000  1
  N  N337  1  0.45380000  0.39980000  0.88239000  1
  N  N338  1  0.45380000  0.11761000  0.51741000  1
  N  N339  1  0.45380000  0.48259000  0.88239000  1
  N  N340  1  0.45380000  0.39980000  0.51741000  1
  N  N341  1  0.45380000  0.48259000  0.60020000  1
  N  N342  1  0.45456000  0.17988000  0.73738000  1
  N  N343  1  0.45456000  0.26262000  0.82012000  1
  N  N344  1  0.45456000  0.17988000  0.44250000  1
  N  N345  1  0.45456000  0.55750000  0.82012000  1
  N  N346  1  0.45456000  0.26262000  0.44250000  1
  N  N347  1  0.45456000  0.55750000  0.73738000  1
  N  N348  1  0.47164000  0.04231000  0.66040000  1
  N  N349  1  0.47164000  0.33960000  0.95769000  1
  N  N350  1  0.47164000  0.04231000  0.38191000  1
  N  N351  1  0.47164000  0.61809000  0.95769000  1
  N  N352  1  0.47164000  0.33960000  0.38191000  1
  N  N353  1  0.47164000  0.61809000  0.66040000  1
  N  N354  1  0.52836000  0.38191000  0.33960000  1
  N  N355  1  0.52836000  0.66040000  0.61809000  1
  N  N356  1  0.52836000  0.38191000  0.04231000  1
  N  N357  1  0.52836000  0.95769000  0.61809000  1
  N  N358  1  0.52836000  0.66040000  0.04231000  1
  N  N359  1  0.52836000  0.95769000  0.33960000  1
  N  N360  1  0.54544000  0.44250000  0.26262000  1
  N  N361  1  0.54544000  0.73738000  0.55750000  1
  N  N362  1  0.54544000  0.44250000  0.17988000  1
  N  N363  1  0.54544000  0.82012000  0.55750000  1
  N  N364  1  0.54544000  0.73738000  0.17988000  1
  N  N365  1  0.54544000  0.82012000  0.26262000  1
  N  N366  1  0.54620000  0.51741000  0.39980000  1
  N  N367  1  0.54620000  0.60020000  0.48259000  1
  N  N368  1  0.54620000  0.51741000  0.11761000  1
  N  N369  1  0.54620000  0.88239000  0.48259000  1
  N  N370  1  0.54620000  0.60020000  0.11761000  1
  N  N371  1  0.54620000  0.88239000  0.39980000  1
  N  N372  1  0.68760000  0.42210000  0.33109000  1
  N  N373  1  0.68760000  0.66891000  0.57790000  1
  N  N374  1  0.68760000  0.42210000  0.09101000  1
  N  N375  1  0.68760000  0.90899000  0.57790000  1
  N  N376  1  0.68760000  0.66891000  0.09101000  1
  N  N377  1  0.68760000  0.90899000  0.33109000  1
  N  N378  1  0.75000000  0.50153000  0.33199000  1
  N  N379  1  0.75000000  0.66801000  0.49847000  1
  N  N380  1  0.75000000  0.50153000  0.16954000  1
  N  N381  1  0.75000000  0.83046000  0.49847000  1
  N  N382  1  0.75000000  0.66801000  0.16954000  1
  N  N383  1  0.75000000  0.83046000  0.33199000  1
  N  N384  1  0.81240000  0.42210000  0.33109000  1
  N  N385  1  0.81240000  0.66891000  0.57790000  1
  N  N386  1  0.81240000  0.42210000  0.09101000  1
  N  N387  1  0.81240000  0.90899000  0.57790000  1
  N  N388  1  0.81240000  0.66891000  0.09101000  1
  N  N389  1  0.81240000  0.90899000  0.33109000  1
  N  N390  1  0.95380000  0.51741000  0.39980000  1
  N  N391  1  0.95380000  0.60020000  0.48259000  1
  N  N392  1  0.95380000  0.51741000  0.11761000  1
  N  N393  1  0.95380000  0.88239000  0.48259000  1
  N  N394  1  0.95380000  0.60020000  0.11761000  1
  N  N395  1  0.95380000  0.88239000  0.39980000  1
  N  N396  1  0.95456000  0.44250000  0.26262000  1
  N  N397  1  0.95456000  0.73738000  0.55750000  1
  N  N398  1  0.95456000  0.44250000  0.17988000  1
  N  N399  1  0.95456000  0.82012000  0.55750000  1
  N  N400  1  0.95456000  0.73738000  0.17988000  1
  N  N401  1  0.95456000  0.82012000  0.26262000  1
  N  N402  1  0.97164000  0.38191000  0.33960000  1
  N  N403  1  0.97164000  0.66040000  0.61809000  1
  N  N404  1  0.97164000  0.38191000  0.04231000  1
  N  N405  1  0.97164000  0.95769000  0.61809000  1
  N  N406  1  0.97164000  0.66040000  0.04231000  1
  N  N407  1  0.97164000  0.95769000  0.33960000  1
  O  O408  1  0.19035000  0.19062000  0.66788000  1
  O  O409  1  0.19035000  0.33212000  0.80938000  1
  O  O410  1  0.19035000  0.19062000  0.52274000  1
  O  O411  1  0.19035000  0.47726000  0.80938000  1
  O  O412  1  0.19035000  0.33212000  0.52274000  1
  O  O413  1  0.19035000  0.47726000  0.66788000  1
  O  O414  1  0.30965000  0.19062000  0.66788000  1
  O  O415  1  0.30965000  0.33212000  0.80938000  1
  O  O416  1  0.30965000  0.19062000  0.52274000  1
  O  O417  1  0.30965000  0.47726000  0.80938000  1
  O  O418  1  0.30965000  0.33212000  0.52274000  1
  O  O419  1  0.30965000  0.47726000  0.66788000  1
  O  O420  1  0.69035000  0.52274000  0.33212000  1
  O  O421  1  0.69035000  0.66788000  0.47726000  1
  O  O422  1  0.69035000  0.52274000  0.19062000  1
  O  O423  1  0.69035000  0.80938000  0.47726000  1
  O  O424  1  0.69035000  0.66788000  0.19062000  1
  O  O425  1  0.69035000  0.80938000  0.33212000  1
  O  O426  1  0.80965000  0.52274000  0.33212000  1
  O  O427  1  0.80965000  0.66788000  0.47726000  1
  O  O428  1  0.80965000  0.52274000  0.19062000  1
  O  O429  1  0.80965000  0.80938000  0.47726000  1
  O  O430  1  0.80965000  0.66788000  0.19062000  1
  O  O431  1  0.80965000  0.80938000  0.33212000  1
