# generated using pymatgen
data_FeH2C7O5
_symmetry_space_group_name_H-M   'P 1'
_cell_length_a   8.67160000
_cell_length_b   8.67160000
_cell_length_c   10.86500000
_cell_angle_alpha   90.00000000
_cell_angle_beta   90.00000000
_cell_angle_gamma   120.00000000
_symmetry_Int_Tables_number   1
_chemical_formula_structural   FeH2C7O5
_chemical_formula_sum   'Fe3 H6 C21 O15'
_cell_volume   707.55277037
_cell_formula_units_Z   3
loop_
 _symmetry_equiv_pos_site_id
 _symmetry_equiv_pos_as_xyz
  1  'x, y, z'
loop_
 _atom_site_type_symbol
 _atom_site_label
 _atom_site_symmetry_multiplicity
 _atom_site_fract_x
 _atom_site_fract_y
 _atom_site_fract_z
 _atom_site_occupancy
  Fe  Fe0  1  0.94182000  0.00000000  0.83333000  1
  Fe  Fe1  1  0.05818000  0.05818000  0.50000000  1
  Fe  Fe2  1  1.00000000  0.94182000  0.16667000  1
  H  H3  1  0.90260000  0.51180000  0.84313000  1
  H  H4  1  0.60920000  0.09740000  0.50980000  1
  H  H5  1  0.51180000  0.90260000  0.15687000  1
  H  H6  1  0.48820000  0.39080000  0.17647000  1
  H  H7  1  0.39080000  0.48820000  0.82353000  1
  H  H8  1  0.09740000  0.60920000  0.49020000  1
  C  C9  1  1.00000000  0.26940000  0.66666667  1
  C  C10  1  1.00000000  0.58360000  0.66666667  1
  C  C11  1  1.00000000  0.75470000  0.66666667  1
  C  C12  1  0.94080000  0.47570000  0.77243000  1
  C  C13  1  0.93940000  0.31480000  0.77083000  1
  C  C14  1  0.75470000  1.00000000  0.33333333  1
  C  C15  1  0.73060000  0.73060000  1.00000000  1
  C  C16  1  0.68520000  0.62460000  0.10417000  1
  C  C17  1  0.62460000  0.68520000  0.89583000  1
  C  C18  1  0.58360000  0.00000000  0.33333333  1
  C  C19  1  0.53490000  0.05920000  0.43910000  1
  C  C20  1  0.52430000  0.46510000  0.10577000  1
  C  C21  1  0.47570000  0.94080000  0.22757000  1
  C  C22  1  0.46510000  0.52430000  0.89423000  1
  C  C23  1  0.41640000  0.41640000  1.00000000  1
  C  C24  1  0.37540000  0.06060000  0.43750000  1
  C  C25  1  0.31480000  0.93940000  0.22917000  1
  C  C26  1  0.26940000  1.00000000  0.33333333  1
  C  C27  1  0.24530000  0.24530000  1.00000000  1
  C  C28  1  0.06060000  0.37540000  0.56250000  1
  C  C29  1  0.05920000  0.53490000  0.56090000  1
  O  O30  1  1.00000000  0.11260000  0.66666667  1
  O  O31  1  0.97730000  0.81090000  0.56470000  1
  O  O32  1  0.88740000  0.88740000  1.00000000  1
  O  O33  1  0.87960000  0.19250000  0.86303000  1
  O  O34  1  0.83360000  0.02270000  0.23137000  1
  O  O35  1  0.81090000  0.97730000  0.43530000  1
  O  O36  1  0.80750000  0.68710000  0.19637000  1
  O  O37  1  0.68710000  0.80750000  0.80363000  1
  O  O38  1  0.31290000  0.12040000  0.52970000  1
  O  O39  1  0.19250000  0.87960000  0.13697000  1
  O  O40  1  0.18910000  0.16640000  0.89803000  1
  O  O41  1  0.16640000  0.18910000  0.10197000  1
  O  O42  1  0.12040000  0.31290000  0.47030000  1
  O  O43  1  0.11260000  0.00000000  0.33333333  1
  O  O44  1  0.02270000  0.83360000  0.76863000  1
