# generated using pymatgen
data_Zn3H45C65S5(N3O5)2
_symmetry_space_group_name_H-M   'P 1'
_cell_length_a   17.03980000
_cell_length_b   21.95440000
_cell_length_c   23.89140000
_cell_angle_alpha   90.00000000
_cell_angle_beta   90.00000000
_cell_angle_gamma   106.56800000
_symmetry_Int_Tables_number   1
_chemical_formula_structural   Zn3H45C65S5(N3O5)2
_chemical_formula_sum   'Zn12 H180 C260 S20 N24 O40'
_cell_volume   8566.66174370
_cell_formula_units_Z   4
loop_
 _symmetry_equiv_pos_site_id
 _symmetry_equiv_pos_as_xyz
  1  'x, y, z'
loop_
 _atom_site_type_symbol
 _atom_site_label
 _atom_site_symmetry_multiplicity
 _atom_site_fract_x
 _atom_site_fract_y
 _atom_site_fract_z
 _atom_site_occupancy
  Zn  Zn0  1  0.27939000  0.01786000  0.00010000  1
  Zn  Zn1  1  0.77939000  0.01786000  0.49990000  1
  Zn  Zn2  1  0.04588000  0.31152000  0.01769000  1
  Zn  Zn3  1  0.54588000  0.31152000  0.48231000  1
  Zn  Zn4  1  0.10377000  0.36428000  0.50013000  1
  Zn  Zn5  1  0.60377000  0.36428000  0.99987000  1
  Zn  Zn6  1  0.39623000  0.63572000  0.00013000  1
  Zn  Zn7  1  0.89623000  0.63572000  0.49987000  1
  Zn  Zn8  1  0.45412000  0.68848000  0.51769000  1
  Zn  Zn9  1  0.95412000  0.68848000  0.98231000  1
  Zn  Zn10  1  0.22061000  0.98214000  0.50010000  1
  Zn  Zn11  1  0.72061000  0.98214000  0.99990000  1
  H  H12  1  0.44100000  0.00040000  0.54070000  1
  H  H13  1  0.94100000  0.00040000  0.95930000  1
  H  H14  1  0.57630000  0.00390000  0.52400000  1
  H  H15  1  0.07630000  0.00390000  0.97600000  1
  H  H16  1  0.39000000  0.02700000  0.10270000  1
  H  H17  1  0.89000000  0.02700000  0.39730000  1
  H  H18  1  0.51970000  0.06700000  0.12670000  1
  H  H19  1  0.01970000  0.06700000  0.37330000  1
  H  H20  1  0.94220000  0.07190000  0.55510000  1
  H  H21  1  0.44220000  0.07190000  0.94490000  1
  H  H22  1  0.45660000  0.07810000  0.77710000  1
  H  H23  1  0.00070000  0.09110000  0.08360000  1
  H  H24  1  0.50070000  0.09110000  0.41640000  1
  H  H25  1  0.28300000  0.09700000  0.16800000  1
  H  H26  1  0.78300000  0.09700000  0.33200000  1
  H  H27  1  0.49830000  0.10560000  0.58240000  1
  H  H28  1  0.99830000  0.10560000  0.91760000  1
  H  H29  1  0.20810000  0.11150000  0.05970000  1
  H  H30  1  0.70810000  0.11150000  0.44030000  1
  H  H31  1  0.81900000  0.11700000  0.58800000  1
  H  H32  1  0.31900000  0.11700000  0.91200000  1
  H  H33  1  0.07450000  0.11930000  0.53100000  1
  H  H34  1  0.57450000  0.11930000  0.96900000  1
  H  H35  1  0.66500000  0.12200000  0.09620000  1
  H  H36  1  0.16500000  0.12200000  0.40380000  1
  H  H37  1  0.69400000  0.12400000  0.03300000  1
  H  H38  1  0.19400000  0.12400000  0.46700000  1
  H  H39  1  0.86700000  0.12810000  0.12210000  1
  H  H40  1  0.36700000  0.12810000  0.37790000  1
  H  H41  1  0.03960000  0.20000000  0.08920000  1
  H  H42  1  0.53960000  0.20000000  0.41080000  1
  H  H43  1  0.53790000  0.21390000  0.57370000  1
  H  H44  1  0.03790000  0.21390000  0.92630000  1
  H  H45  1  0.96200000  0.21550000  0.19550000  1
  H  H46  1  0.46200000  0.21550000  0.30450000  1
  H  H47  1  0.21190000  0.21640000  0.05570000  1
  H  H48  1  0.71190000  0.21640000  0.44430000  1
  H  H49  1  0.63530000  0.21850000  0.03560000  1
  H  H50  1  0.13530000  0.21850000  0.46440000  1
  H  H51  1  0.65010000  0.22020000  0.10050000  1
  H  H52  1  0.15010000  0.22020000  0.39950000  1
  H  H53  1  0.81780000  0.22760000  0.59380000  1
  H  H54  1  0.31780000  0.22760000  0.90620000  1
  H  H55  1  0.25280000  0.23120000  0.52740000  1
  H  H56  1  0.75280000  0.23120000  0.97260000  1
  H  H57  1  0.79340000  0.25870000  0.13530000  1
  H  H58  1  0.29340000  0.25870000  0.36470000  1
  H  H59  1  0.38630000  0.26390000  0.72140000  1
  H  H60  1  0.38960000  0.27380000  0.54310000  1
  H  H61  1  0.88960000  0.27380000  0.95690000  1
  H  H62  1  0.53300000  0.28780000  0.21360000  1
  H  H63  1  0.03300000  0.28780000  0.28640000  1
  H  H64  1  0.92940000  0.30330000  0.11610000  1
  H  H65  1  0.42940000  0.30330000  0.38390000  1
  H  H66  1  0.75340000  0.31590000  0.55490000  1
  H  H67  1  0.25340000  0.31590000  0.94510000  1
  H  H68  1  0.24920000  0.31760000  0.01080000  1
  H  H69  1  0.74920000  0.31760000  0.48920000  1
  H  H70  1  0.39160000  0.32840000  0.01390000  1
  H  H71  1  0.89160000  0.32840000  0.48610000  1
  H  H72  1  0.89390000  0.33210000  0.55160000  1
  H  H73  1  0.39390000  0.33210000  0.94840000  1
  H  H74  1  0.12860000  0.37500000  0.23980000  1
  H  H75  1  0.62860000  0.37500000  0.26020000  1
  H  H76  1  0.23400000  0.38300000  0.58400000  1
  H  H77  1  0.73400000  0.38300000  0.91600000  1
  H  H78  1  0.73500000  0.39300000  0.08200000  1
  H  H79  1  0.23500000  0.39300000  0.41800000  1
  H  H80  1  0.40860000  0.42380000  0.06660000  1
  H  H81  1  0.90860000  0.42380000  0.43340000  1
  H  H82  1  0.85970000  0.42800000  0.59710000  1
  H  H83  1  0.35970000  0.42800000  0.90290000  1
  H  H84  1  0.37660000  0.42850000  0.58610000  1
  H  H85  1  0.87660000  0.42850000  0.91390000  1
  H  H86  1  0.11600000  0.43400000  0.67600000  1
  H  H87  1  0.61600000  0.43400000  0.82400000  1
  H  H88  1  0.88410000  0.43430000  0.08100000  1
  H  H89  1  0.38410000  0.43430000  0.41900000  1
  H  H90  1  0.01260000  0.44550000  0.02670000  1
  H  H91  1  0.51260000  0.44550000  0.47330000  1
  H  H92  1  0.71180000  0.45200000  0.17620000  1
  H  H93  1  0.21180000  0.45200000  0.32380000  1
  H  H94  1  0.51020000  0.45340000  0.53860000  1
  H  H95  1  0.01020000  0.45340000  0.96140000  1
  H  H96  1  0.69000000  0.46190000  0.60350000  1
  H  H97  1  0.19000000  0.46190000  0.89650000  1
  H  H98  1  0.61600000  0.46300000  0.08200000  1
  H  H99  1  0.11600000  0.46300000  0.41800000  1
  H  H100  1  0.07460000  0.46940000  0.57030000  1
  H  H101  1  0.57460000  0.46940000  0.92970000  1
  H  H102  1  0.42540000  0.53060000  0.07030000  1
  H  H103  1  0.92540000  0.53060000  0.42970000  1
  H  H104  1  0.88400000  0.53700000  0.58200000  1
  H  H105  1  0.38400000  0.53700000  0.91800000  1
  H  H106  1  0.81000000  0.53810000  0.10350000  1
  H  H107  1  0.31000000  0.53810000  0.39650000  1
  H  H108  1  0.98980000  0.54660000  0.03860000  1
  H  H109  1  0.48980000  0.54660000  0.46140000  1
  H  H110  1  0.78820000  0.54800000  0.67620000  1
  H  H111  1  0.28820000  0.54800000  0.82380000  1
  H  H112  1  0.48740000  0.55450000  0.52670000  1
  H  H113  1  0.98740000  0.55450000  0.97330000  1
  H  H114  1  0.61590000  0.56570000  0.58100000  1
  H  H115  1  0.11590000  0.56570000  0.91900000  1
  H  H116  1  0.38400000  0.56600000  0.17600000  1
  H  H117  1  0.88400000  0.56600000  0.32400000  1
  H  H118  1  0.12340000  0.57150000  0.08610000  1
  H  H119  1  0.62340000  0.57150000  0.41390000  1
  H  H120  1  0.64030000  0.57200000  0.09710000  1
  H  H121  1  0.14030000  0.57200000  0.40290000  1
  H  H122  1  0.09140000  0.57620000  0.56660000  1
  H  H123  1  0.59140000  0.57620000  0.93340000  1
  H  H124  1  0.76500000  0.60700000  0.58200000  1
  H  H125  1  0.26500000  0.60700000  0.91800000  1
  H  H126  1  0.26600000  0.61700000  0.08400000  1
  H  H127  1  0.76600000  0.61700000  0.41600000  1
  H  H128  1  0.37140000  0.62500000  0.73980000  1
  H  H129  1  0.87140000  0.62500000  0.76020000  1
  H  H130  1  0.60610000  0.66790000  0.05160000  1
  H  H131  1  0.10610000  0.66790000  0.44840000  1
  H  H132  1  0.10840000  0.67160000  0.51390000  1
  H  H133  1  0.60840000  0.67160000  0.98610000  1
  H  H134  1  0.25080000  0.68240000  0.51080000  1
  H  H135  1  0.75080000  0.68240000  0.98920000  1
  H  H136  1  0.74660000  0.68410000  0.05490000  1
  H  H137  1  0.24660000  0.68410000  0.44510000  1
  H  H138  1  0.57060000  0.69670000  0.61610000  1
  H  H139  1  0.07060000  0.69670000  0.88390000  1
  H  H140  1  0.96700000  0.71220000  0.71360000  1
  H  H141  1  0.46700000  0.71220000  0.78640000  1
  H  H142  1  0.11040000  0.72620000  0.04310000  1
  H  H143  1  0.61040000  0.72620000  0.45690000  1
  H  H144  1  0.61370000  0.73610000  0.27860000  1
  H  H145  1  0.70660000  0.74130000  0.63530000  1
  H  H146  1  0.20660000  0.74130000  0.86470000  1
  H  H147  1  0.24720000  0.76880000  0.02740000  1
  H  H148  1  0.74720000  0.76880000  0.47260000  1
  H  H149  1  0.68220000  0.77240000  0.09380000  1
  H  H150  1  0.18220000  0.77240000  0.40620000  1
  H  H151  1  0.84990000  0.77980000  0.60050000  1
  H  H152  1  0.34990000  0.77980000  0.89950000  1
  H  H153  1  0.86470000  0.78150000  0.53560000  1
  H  H154  1  0.36470000  0.78150000  0.96440000  1
  H  H155  1  0.28810000  0.78360000  0.55570000  1
  H  H156  1  0.78810000  0.78360000  0.94430000  1
  H  H157  1  0.53800000  0.78450000  0.69550000  1
  H  H158  1  0.03800000  0.78450000  0.80450000  1
  H  H159  1  0.96210000  0.78610000  0.07370000  1
  H  H160  1  0.46210000  0.78610000  0.42630000  1
  H  H161  1  0.46040000  0.80000000  0.58920000  1
  H  H162  1  0.96040000  0.80000000  0.91080000  1
  H  H163  1  0.63300000  0.87190000  0.62210000  1
  H  H164  1  0.13300000  0.87190000  0.87790000  1
  H  H165  1  0.80600000  0.87600000  0.53300000  1
  H  H166  1  0.30600000  0.87600000  0.96700000  1
  H  H167  1  0.83500000  0.87800000  0.59620000  1
  H  H168  1  0.33500000  0.87800000  0.90380000  1
  H  H169  1  0.42550000  0.88070000  0.03100000  1
  H  H170  1  0.92550000  0.88070000  0.46900000  1
  H  H171  1  0.68100000  0.88300000  0.08800000  1
  H  H172  1  0.18100000  0.88300000  0.41200000  1
  H  H173  1  0.29190000  0.88850000  0.55970000  1
  H  H174  1  0.79190000  0.88850000  0.94030000  1
  H  H175  1  0.00170000  0.89440000  0.08240000  1
  H  H176  1  0.50170000  0.89440000  0.41760000  1
  H  H177  1  0.21700000  0.90300000  0.66800000  1
  H  H178  1  0.71700000  0.90300000  0.83200000  1
  H  H179  1  0.49930000  0.90890000  0.58360000  1
  H  H180  1  0.99930000  0.90890000  0.91640000  1
  H  H181  1  0.54340000  0.92190000  0.22290000  1
  H  H182  1  0.55780000  0.92810000  0.05510000  1
  H  H183  1  0.05780000  0.92810000  0.44490000  1
  H  H184  1  0.98030000  0.93300000  0.62670000  1
  H  H185  1  0.48030000  0.93300000  0.87330000  1
  H  H186  1  0.11000000  0.97300000  0.60270000  1
  H  H187  1  0.61000000  0.97300000  0.89730000  1
  H  H188  1  0.92370000  0.99610000  0.02400000  1
  H  H189  1  0.42370000  0.99610000  0.47600000  1
  H  H190  1  0.05900000  0.99960000  0.04070000  1
  H  H191  1  0.55900000  0.99960000  0.45930000  1
  C  C192  1  0.46510000  0.01310000  0.50420000  1
  C  C193  1  0.96510000  0.01310000  0.99580000  1
  C  C194  1  0.73600000  0.01930000  0.10910000  1
  C  C195  1  0.23600000  0.01930000  0.39090000  1
  C  C196  1  0.42490000  0.04260000  0.07250000  1
  C  C197  1  0.92490000  0.04260000  0.42750000  1
  C  C198  1  0.77610000  0.05890000  0.15675000  1
  C  C199  1  0.27610000  0.05890000  0.34325000  1
  C  C200  1  0.27660000  0.06360000  0.58123000  1
  C  C201  1  0.50500000  0.06970000  0.08950000  1
  C  C202  1  0.00500000  0.06970000  0.41050000  1
  C  C203  1  0.95730000  0.07180000  0.51760000  1
  C  C204  1  0.45730000  0.07180000  0.98240000  1
  C  C205  1  0.49280000  0.08570000  0.50040000  1
  C  C206  1  0.99280000  0.08570000  0.99960000  1
  C  C207  1  0.32230000  0.09620000  0.63035000  1
  C  C208  1  0.03710000  0.10010000  0.50350000  1
  C  C209  1  0.53710000  0.10010000  0.99650000  1
  C  C210  1  0.56250000  0.10048000  0.05097000  1
  C  C211  1  0.06250000  0.10048000  0.44903000  1
  C  C212  1  0.31380000  0.10371000  0.24781000  1
  C  C213  1  0.81380000  0.10371000  0.25219000  1
  C  C214  1  0.84070000  0.11130000  0.15513000  1
  C  C215  1  0.34070000  0.11130000  0.34487000  1
  C  C216  1  0.44240000  0.11410000  0.76610000  1
  C  C217  1  0.00700000  0.11520000  0.05100000  1
  C  C218  1  0.50700000  0.11520000  0.44900000  1
  C  C219  1  0.39980000  0.11560000  0.71710000  1
  C  C220  1  0.32540000  0.11990000  0.19166000  1
  C  C221  1  0.82540000  0.11990000  0.30834000  1
  C  C222  1  0.50570000  0.12390000  0.54690000  1
  C  C223  1  0.00570000  0.12390000  0.95310000  1
  C  C224  1  0.65000000  0.13360000  0.06550000  1
  C  C225  1  0.15000000  0.13360000  0.43450000  1
  C  C226  1  0.23190000  0.13540000  0.02874000  1
  C  C227  1  0.73190000  0.13540000  0.47126000  1
  C  C228  1  0.86500000  0.13880000  0.20921000  1
  C  C229  1  0.36500000  0.13880000  0.29079000  1
  C  C230  1  0.79410000  0.14190000  0.55670000  1
  C  C231  1  0.29410000  0.14190000  0.94330000  1
  C  C232  1  0.37980000  0.17020000  0.69970000  1
  C  C233  1  0.46320000  0.17080000  0.79860000  1
  C  C234  1  0.38920000  0.17340000  0.17873000  1
  C  C235  1  0.88920000  0.17340000  0.32127000  1
  C  C236  1  0.03050000  0.18090000  0.05420000  1
  C  C237  1  0.53050000  0.18090000  0.44580000  1
  C  C238  1  0.52930000  0.18900000  0.54160000  1
  C  C239  1  0.02930000  0.18900000  0.95840000  1
  C  C240  1  0.92820000  0.19200000  0.22320000  1
  C  C241  1  0.42820000  0.19200000  0.27680000  1
  C  C242  1  0.23380000  0.19850000  0.02640000  1
  C  C243  1  0.73380000  0.19850000  0.47360000  1
  C  C244  1  0.79660000  0.20510000  0.56160000  1
  C  C245  1  0.29660000  0.20510000  0.93840000  1
  C  C246  1  0.66700000  0.20641000  0.06509000  1
  C  C247  1  0.16700000  0.20641000  0.43491000  1
  C  C248  1  0.44080000  0.21020000  0.22078000  1
  C  C249  1  0.94080000  0.21020000  0.27922000  1
  C  C250  1  0.44450000  0.22440000  0.78240000  1
  C  C251  1  0.40040000  0.22770000  0.73220000  1
  C  C252  1  0.76740000  0.23510000  0.51860000  1
  C  C253  1  0.26740000  0.23510000  0.98140000  1
  C  C254  1  0.75650000  0.23864000  0.05582000  1
  C  C255  1  0.25650000  0.23864000  0.44418000  1
  C  C256  1  0.78780000  0.24480000  0.00285000  1
  C  C257  1  0.28780000  0.24480000  0.49715000  1
  C  C258  1  0.51810000  0.25290000  0.86623000  1
  C  C259  1  0.81150000  0.26130000  0.09845000  1
  C  C260  1  0.31150000  0.26130000  0.40155000  1
  C  C261  1  0.50080000  0.26240000  0.19735000  1
  C  C262  1  0.00080000  0.26240000  0.30265000  1
  C  C263  1  0.49630000  0.26680000  0.14135000  1
  C  C264  1  0.99630000  0.26680000  0.35865000  1
  C  C265  1  0.37030000  0.27080000  0.50645000  1
  C  C266  1  0.87030000  0.27080000  0.99355000  1
  C  C267  1  0.56390000  0.28770000  0.91473000  1
  C  C268  1  0.89370000  0.28780000  0.08663000  1
  C  C269  1  0.39370000  0.28780000  0.41337000  1
  C  C270  1  0.77750000  0.30560000  0.52070000  1
  C  C271  1  0.27750000  0.30560000  0.97930000  1
  C  C272  1  0.55050000  0.31501000  0.10444000  1
  C  C273  1  0.05050000  0.31501000  0.39556000  1
  C  C274  1  0.86690000  0.34210000  0.51850000  1
  C  C275  1  0.36690000  0.34210000  0.98150000  1
  C  C276  1  0.55600000  0.34930000  0.59691000  1
  C  C277  1  0.05600000  0.34930000  0.90309000  1
  C  C278  1  0.11180000  0.35050000  0.12517000  1
  C  C279  1  0.61180000  0.35050000  0.37483000  1
  C  C280  1  0.59940000  0.39160000  0.64219000  1
  C  C281  1  0.09940000  0.39160000  0.85781000  1
  C  C282  1  0.26780000  0.39790000  0.54760000  1
  C  C283  1  0.76780000  0.39790000  0.95240000  1
  C  C284  1  0.16780000  0.39890000  0.16132000  1
  C  C285  1  0.66780000  0.39890000  0.33868000  1
  C  C286  1  0.77200000  0.40100000  0.04750000  1
  C  C287  1  0.27200000  0.40100000  0.45250000  1
  C  C288  1  0.16640000  0.40360000  0.21741000  1
  C  C289  1  0.66640000  0.40360000  0.28259000  1
  C  C290  1  0.88120000  0.41270000  0.51550000  1
  C  C291  1  0.38120000  0.41270000  0.98450000  1
  C  C292  1  0.35120000  0.42180000  0.55130000  1
  C  C293  1  0.85120000  0.42180000  0.94870000  1
  C  C294  1  0.85560000  0.42520000  0.04740000  1
  C  C295  1  0.35560000  0.42520000  0.45260000  1
  C  C296  1  0.39740000  0.43590000  0.50270000  1
  C  C297  1  0.89740000  0.43590000  0.99730000  1
  C  C298  1  0.64230000  0.43880000  0.73613000  1
  C  C299  1  0.14230000  0.43880000  0.76387000  1
  C  C300  1  0.66560000  0.44290000  0.63820000  1
  C  C301  1  0.16560000  0.44290000  0.86180000  1
  C  C302  1  0.40160000  0.44540000  0.03440000  1
  C  C303  1  0.90160000  0.44540000  0.46560000  1
  C  C304  1  0.87250000  0.44770000  0.56250000  1
  C  C305  1  0.37250000  0.44770000  0.93750000  1
  C  C306  1  0.15590000  0.45620000  0.70838000  1
  C  C307  1  0.65590000  0.45620000  0.79162000  1
  C  C308  1  0.22800000  0.45642000  0.23956000  1
  C  C309  1  0.72800000  0.45642000  0.26044000  1
  C  C310  1  0.48850000  0.46370000  0.50350000  1
  C  C311  1  0.98850000  0.46370000  0.99650000  1
  C  C312  1  0.69200000  0.47180000  0.69202000  1
  C  C313  1  0.19200000  0.47180000  0.80798000  1
  C  C314  1  0.74410000  0.47510000  0.20473000  1
  C  C315  1  0.24410000  0.47510000  0.29527000  1
  C  C316  1  0.61680000  0.48770000  0.05700000  1
  C  C317  1  0.11680000  0.48770000  0.44300000  1
  C  C318  1  0.08860000  0.49040000  0.53642000  1
  C  C319  1  0.58860000  0.49040000  0.96358000  1
  C  C320  1  0.27800000  0.49160000  0.19689000  1
  C  C321  1  0.77800000  0.49160000  0.30311000  1
  C  C322  1  0.22200000  0.50840000  0.69689000  1
  C  C323  1  0.72200000  0.50840000  0.80311000  1
  C  C324  1  0.41140000  0.50960000  0.03642000  1
  C  C325  1  0.91140000  0.50960000  0.46358000  1
  C  C326  1  0.88320000  0.51230000  0.55700000  1
  C  C327  1  0.38320000  0.51230000  0.94300000  1
  C  C328  1  0.75590000  0.52490000  0.70473000  1
  C  C329  1  0.25590000  0.52490000  0.79527000  1
  C  C330  1  0.80800000  0.52820000  0.19202000  1
  C  C331  1  0.30800000  0.52820000  0.30798000  1
  C  C332  1  0.01150000  0.53630000  0.00350000  1
  C  C333  1  0.51150000  0.53630000  0.49650000  1
  C  C334  1  0.27200000  0.54358000  0.73956000  1
  C  C335  1  0.77200000  0.54358000  0.76044000  1
  C  C336  1  0.34410000  0.54380000  0.20838000  1
  C  C337  1  0.84410000  0.54380000  0.29162000  1
  C  C338  1  0.62750000  0.55230000  0.06250000  1
  C  C339  1  0.12750000  0.55230000  0.43750000  1
  C  C340  1  0.09840000  0.55460000  0.53440000  1
  C  C341  1  0.59840000  0.55460000  0.96560000  1
  C  C342  1  0.83440000  0.55710000  0.13820000  1
  C  C343  1  0.33440000  0.55710000  0.36180000  1
  C  C344  1  0.85770000  0.56120000  0.23613000  1
  C  C345  1  0.35770000  0.56120000  0.26387000  1
  C  C346  1  0.10260000  0.56410000  0.00270000  1
  C  C347  1  0.60260000  0.56410000  0.49730000  1
  C  C348  1  0.64440000  0.57480000  0.54740000  1
  C  C349  1  0.14440000  0.57480000  0.95260000  1
  C  C350  1  0.14880000  0.57820000  0.05130000  1
  C  C351  1  0.64880000  0.57820000  0.44870000  1
  C  C352  1  0.61880000  0.58730000  0.01550000  1
  C  C353  1  0.11880000  0.58730000  0.48450000  1
  C  C354  1  0.33360000  0.59640000  0.71741000  1
  C  C355  1  0.83360000  0.59640000  0.78259000  1
  C  C356  1  0.72800000  0.59900000  0.54750000  1
  C  C357  1  0.22800000  0.59900000  0.95250000  1
  C  C358  1  0.33220000  0.60110000  0.66132000  1
  C  C359  1  0.83220000  0.60110000  0.83868000  1
  C  C360  1  0.23220000  0.60210000  0.04760000  1
  C  C361  1  0.73220000  0.60210000  0.45240000  1
  C  C362  1  0.90060000  0.60840000  0.14219000  1
  C  C363  1  0.40060000  0.60840000  0.35781000  1
  C  C364  1  0.38820000  0.64950000  0.62517000  1
  C  C365  1  0.88820000  0.64950000  0.87483000  1
  C  C366  1  0.94400000  0.65070000  0.09691000  1
  C  C367  1  0.44400000  0.65070000  0.40309000  1
  C  C368  1  0.63310000  0.65790000  0.01850000  1
  C  C369  1  0.13310000  0.65790000  0.48150000  1
  C  C370  1  0.94950000  0.68499000  0.60444000  1
  C  C371  1  0.44950000  0.68499000  0.89556000  1
  C  C372  1  0.72250000  0.69440000  0.02070000  1
  C  C373  1  0.22250000  0.69440000  0.47930000  1
  C  C374  1  0.60630000  0.71220000  0.58663000  1
  C  C375  1  0.10630000  0.71220000  0.91337000  1
  C  C376  1  0.43610000  0.71230000  0.08527000  1
  C  C377  1  0.12970000  0.72920000  0.00645000  1
  C  C378  1  0.62970000  0.72920000  0.49355000  1
  C  C379  1  0.00370000  0.73320000  0.64135000  1
  C  C380  1  0.50370000  0.73320000  0.85865000  1
  C  C381  1  0.99920000  0.73760000  0.69735000  1
  C  C382  1  0.49920000  0.73760000  0.80265000  1
  C  C383  1  0.68850000  0.73870000  0.59845000  1
  C  C384  1  0.18850000  0.73870000  0.90155000  1
  C  C385  1  0.48190000  0.74710000  0.13377000  1
  C  C386  1  0.71220000  0.75520000  0.50285000  1
  C  C387  1  0.21220000  0.75520000  0.99715000  1
  C  C388  1  0.74350000  0.76136000  0.55582000  1
  C  C389  1  0.24350000  0.76136000  0.94418000  1
  C  C390  1  0.73260000  0.76490000  0.01860000  1
  C  C391  1  0.23260000  0.76490000  0.48140000  1
  C  C392  1  0.59960000  0.77230000  0.26780000  1
  C  C393  1  0.55550000  0.77560000  0.21760000  1
  C  C394  1  0.05920000  0.78980000  0.72078000  1
  C  C395  1  0.55920000  0.78980000  0.77922000  1
  C  C396  1  0.83300000  0.79359000  0.56509000  1
  C  C397  1  0.33300000  0.79359000  0.93491000  1
  C  C398  1  0.70340000  0.79490000  0.06160000  1
  C  C399  1  0.20340000  0.79490000  0.43840000  1
  C  C400  1  0.26620000  0.80150000  0.52640000  1
  C  C401  1  0.76620000  0.80150000  0.97360000  1
  C  C402  1  0.57180000  0.80800000  0.72320000  1
  C  C403  1  0.07180000  0.80800000  0.77680000  1
  C  C404  1  0.97070000  0.81100000  0.04160000  1
  C  C405  1  0.47070000  0.81100000  0.45840000  1
  C  C406  1  0.46950000  0.81910000  0.55420000  1
  C  C407  1  0.96950000  0.81910000  0.94580000  1
  C  C408  1  0.11080000  0.82660000  0.67873000  1
  C  C409  1  0.61080000  0.82660000  0.82127000  1
  C  C410  1  0.53680000  0.82920000  0.20140000  1
  C  C411  1  0.62020000  0.82980000  0.30030000  1
  C  C412  1  0.70590000  0.85810000  0.05670000  1
  C  C413  1  0.20590000  0.85810000  0.44330000  1
  C  C414  1  0.63500000  0.86120000  0.70921000  1
  C  C415  1  0.13500000  0.86120000  0.79079000  1
  C  C416  1  0.26810000  0.86460000  0.52874000  1
  C  C417  1  0.76810000  0.86460000  0.97126000  1
  C  C418  1  0.85000000  0.86640000  0.56550000  1
  C  C419  1  0.35000000  0.86640000  0.93450000  1
  C  C420  1  0.99430000  0.87610000  0.04690000  1
  C  C421  1  0.49430000  0.87610000  0.45310000  1
  C  C422  1  0.17460000  0.88010000  0.69166000  1
  C  C423  1  0.67460000  0.88010000  0.80834000  1
  C  C424  1  0.60020000  0.88440000  0.28290000  1
  C  C425  1  0.49300000  0.88480000  0.55100000  1
  C  C426  1  0.99300000  0.88480000  0.94900000  1
  C  C427  1  0.55760000  0.88590000  0.23390000  1
  C  C428  1  0.65930000  0.88870000  0.65513000  1
  C  C429  1  0.15930000  0.88870000  0.84487000  1
  C  C430  1  0.18620000  0.89629000  0.74781000  1
  C  C431  1  0.68620000  0.89629000  0.75219000  1
  C  C432  1  0.93750000  0.89952000  0.55097000  1
  C  C433  1  0.43750000  0.89952000  0.94903000  1
  C  C434  1  0.46290000  0.89990000  0.00350000  1
  C  C435  1  0.96290000  0.89990000  0.49650000  1
  C  C436  1  0.67770000  0.90380000  0.36965000  1
  C  C437  1  0.00720000  0.91430000  0.00040000  1
  C  C438  1  0.50720000  0.91430000  0.49960000  1
  C  C439  1  0.54270000  0.92820000  0.01760000  1
  C  C440  1  0.04270000  0.92820000  0.48240000  1
  C  C441  1  0.99500000  0.93030000  0.58950000  1
  C  C442  1  0.49500000  0.93030000  0.91050000  1
  C  C443  1  0.72340000  0.93640000  0.41877000  1
  C  C444  1  0.72390000  0.94110000  0.65675000  1
  C  C445  1  0.22390000  0.94110000  0.84325000  1
  C  C446  1  0.07510000  0.95740000  0.57250000  1
  C  C447  1  0.57510000  0.95740000  0.92750000  1
  C  C448  1  0.76400000  0.98070000  0.60910000  1
  C  C449  1  0.26400000  0.98070000  0.89090000  1
  C  C450  1  0.03490000  0.98690000  0.00420000  1
  C  C451  1  0.53490000  0.98690000  0.49580000  1
  S  S452  1  0.73871000  0.03956000  0.22414000  1
  S  S453  1  0.23871000  0.03956000  0.27586000  1
  S  S454  1  0.37182000  0.04667000  0.67055000  1
  S  S455  1  0.52602000  0.17297000  0.86065000  1
  S  S456  1  0.41694000  0.20609000  0.11293000  1
  S  S457  1  0.91694000  0.20609000  0.38707000  1
  S  S458  1  0.56374000  0.37521000  0.71017000  1
  S  S459  1  0.06374000  0.37521000  0.78983000  1
  S  S460  1  0.24501000  0.45950000  0.13144000  1
  S  S461  1  0.74501000  0.45950000  0.36856000  1
  S  S462  1  0.25499000  0.54050000  0.63144000  1
  S  S463  1  0.75499000  0.54050000  0.86856000  1
  S  S464  1  0.93626000  0.62479000  0.21017000  1
  S  S465  1  0.43626000  0.62479000  0.28983000  1
  S  S466  1  0.08306000  0.79391000  0.61293000  1
  S  S467  1  0.58306000  0.79391000  0.88707000  1
  S  S468  1  0.47398000  0.82703000  0.13935000  1
  S  S469  1  0.62818000  0.95333000  0.32945000  1
  S  S470  1  0.76129000  0.96044000  0.72414000  1
  S  S471  1  0.26129000  0.96044000  0.77586000  1
  N  N472  1  0.40030000  0.04434000  0.01958000  1
  N  N473  1  0.90030000  0.04434000  0.48042000  1
  N  N474  1  0.76320000  0.10712000  0.51205000  1
  N  N475  1  0.26320000  0.10712000  0.98795000  1
  N  N476  1  0.04050000  0.21761000  0.00896000  1
  N  N477  1  0.54050000  0.21761000  0.49104000  1
  N  N478  1  0.92410000  0.29206000  0.03500000  1
  N  N479  1  0.42410000  0.29206000  0.46500000  1
  N  N480  1  0.72760000  0.38731000  0.00086000  1
  N  N481  1  0.22760000  0.38731000  0.49914000  1
  N  N482  1  0.59850000  0.45686000  0.00871000  1
  N  N483  1  0.09850000  0.45686000  0.49129000  1
  N  N484  1  0.90150000  0.54314000  0.50871000  1
  N  N485  1  0.40150000  0.54314000  0.99129000  1
  N  N486  1  0.77240000  0.61269000  0.50086000  1
  N  N487  1  0.27240000  0.61269000  0.99914000  1
  N  N488  1  0.57590000  0.70794000  0.53500000  1
  N  N489  1  0.07590000  0.70794000  0.96500000  1
  N  N490  1  0.45950000  0.78239000  0.50896000  1
  N  N491  1  0.95950000  0.78239000  0.99104000  1
  N  N492  1  0.73680000  0.89288000  0.01205000  1
  N  N493  1  0.23680000  0.89288000  0.48795000  1
  N  N494  1  0.09970000  0.95566000  0.51958000  1
  N  N495  1  0.59970000  0.95566000  0.98042000  1
  O  O496  1  0.28304000  0.00811000  0.57027000  1
  O  O497  1  0.82830000  0.02321000  0.61718000  1
  O  O498  1  0.32830000  0.02321000  0.88282000  1
  O  O499  1  0.77340000  0.03273000  0.06278000  1
  O  O500  1  0.27340000  0.03273000  0.43722000  1
  O  O501  1  0.23460000  0.09007000  0.55335000  1
  O  O502  1  0.60380000  0.26207000  0.94487000  1
  O  O503  1  0.06290000  0.30392000  0.14726000  1
  O  O504  1  0.56290000  0.30392000  0.35274000  1
  O  O505  1  0.49210000  0.30792000  0.60825000  1
  O  O506  1  0.99210000  0.30792000  0.89175000  1
  O  O507  1  0.53150000  0.30948000  0.05259000  1
  O  O508  1  0.03150000  0.30948000  0.44741000  1
  O  O509  1  0.55792000  0.34431000  0.92317000  1
  O  O510  1  0.60860000  0.35632000  0.12462000  1
  O  O511  1  0.10860000  0.35632000  0.37538000  1
  O  O512  1  0.59020000  0.35960000  0.54860000  1
  O  O513  1  0.09020000  0.35960000  0.95140000  1
  O  O514  1  0.12043000  0.36061000  0.07279000  1
  O  O515  1  0.62043000  0.36061000  0.42721000  1
  O  O516  1  0.37957000  0.63939000  0.57279000  1
  O  O517  1  0.87957000  0.63939000  0.92721000  1
  O  O518  1  0.90980000  0.64040000  0.04860000  1
  O  O519  1  0.40980000  0.64040000  0.45140000  1
  O  O520  1  0.89140000  0.64368000  0.62462000  1
  O  O521  1  0.39140000  0.64368000  0.87538000  1
  O  O522  1  0.44208000  0.65569000  0.07683000  1
  O  O523  1  0.96850000  0.69052000  0.55259000  1
  O  O524  1  0.46850000  0.69052000  0.94741000  1
  O  O525  1  0.00790000  0.69208000  0.10825000  1
  O  O526  1  0.50790000  0.69208000  0.39175000  1
  O  O527  1  0.43710000  0.69608000  0.64726000  1
  O  O528  1  0.93710000  0.69608000  0.85274000  1
  O  O529  1  0.39620000  0.73793000  0.05513000  1
  O  O530  1  0.76540000  0.90993000  0.44665000  1
  O  O531  1  0.72660000  0.96727000  0.56278000  1
  O  O532  1  0.22660000  0.96727000  0.93722000  1
  O  O533  1  0.67170000  0.97679000  0.11718000  1
  O  O534  1  0.17170000  0.97679000  0.38282000  1
  O  O535  1  0.71696000  0.99189000  0.42973000  1
