# generated using pymatgen
data_Pr2H15C24(NO4)3
_symmetry_space_group_name_H-M   'P 1'
_cell_length_a   10.49510000
_cell_length_b   11.33960000
_cell_length_c   12.79540000
_cell_angle_alpha   100.73000000
_cell_angle_beta   110.14200000
_cell_angle_gamma   99.73200000
_symmetry_Int_Tables_number   1
_chemical_formula_structural   Pr2H15C24(NO4)3
_chemical_formula_sum   'Pr2 H15 C24 N3 O12'
_cell_volume   1359.04652469
_cell_formula_units_Z   1
loop_
 _symmetry_equiv_pos_site_id
 _symmetry_equiv_pos_as_xyz
  1  'x, y, z'
loop_
 _atom_site_type_symbol
 _atom_site_label
 _atom_site_symmetry_multiplicity
 _atom_site_fract_x
 _atom_site_fract_y
 _atom_site_fract_z
 _atom_site_occupancy
  Pr  Pr0  1  0.40060000  0.44496000  0.34263000  1
  Pr  Pr1  1  0.61101000  0.57328000  0.63661000  1
  H  H2  1  0.09073000  0.35530000  0.37794000  1
  H  H3  1  0.10046000  0.80161000  0.96413000  1
  H  H4  1  0.14387000  0.74935000  0.73186000  1
  H  H5  1  0.26228000  0.99118000  0.10972000  1
  H  H6  1  0.27336000  0.66409000  0.75352000  1
  H  H7  1  0.36267000  0.81398000  0.63298000  1
  H  H8  1  0.41785000  0.96218000  0.73430000  1
  H  H9  1  0.48285000  0.14666000  0.67487000  1
  H  H10  1  0.53805000  0.88904000  0.34098000  1
  H  H11  1  0.57584000  0.11435000  0.37040000  1
  H  H12  1  0.63947000  0.88436000  0.87684000  1
  H  H13  1  0.67849000  0.03157000  0.97503000  1
  H  H14  1  0.83719000  0.33672000  0.31329000  1
  H  H15  1  0.90966000  0.64500000  0.59562000  1
  H  H16  1  0.91494000  0.14787000  0.09826000  1
  C  C17  1  0.05379000  0.41943000  0.42708000  1
  C  C18  1  0.05673000  0.87466000  0.99383000  1
  C  C19  1  0.09487000  0.59033000  0.58938000  1
  C  C20  1  0.10352000  0.08742000  0.11800000  1
  C  C21  1  0.15081000  0.98486000  0.07819000  1
  C  C22  1  0.15131000  0.51082000  0.52635000  1
  C  C23  1  0.20589000  0.21135000  0.20187000  1
  C  C24  1  0.30879000  0.52468000  0.56090000  1
  C  C25  1  0.46792000  0.96119000  0.58380000  1
  C  C26  1  0.48341000  0.88599000  0.48864000  1
  C  C27  1  0.49127000  0.75608000  0.48619000  1
  C  C28  1  0.49841000  0.09073000  0.60397000  1
  C  C29  1  0.52271000  0.94340000  0.41273000  1
  C  C30  1  0.53794000  0.27798000  0.53276000  1
  C  C31  1  0.53848000  0.14725000  0.52845000  1
  C  C32  1  0.54850000  0.07241000  0.43181000  1
  C  C33  1  0.69614000  0.47976000  0.41053000  1
  C  C34  1  0.81132000  0.74278000  0.84687000  1
  C  C35  1  0.85248000  0.49025000  0.44967000  1
  C  C36  1  0.86034000  0.96047000  0.98862000  1
  C  C37  1  0.90754000  0.40887000  0.38980000  1
  C  C38  1  0.90909000  0.85804000  0.94712000  1
  C  C39  1  0.94871000  0.58123000  0.54837000  1
  C  C40  1  0.95637000  0.07172000  0.07129000  1
  N  N41  1  0.18174000  0.67850000  0.69768000  1
  N  N42  1  0.41648000  0.90700000  0.65863000  1
  N  N43  1  0.71400000  0.95736000  0.94372000  1
  O  O44  1  0.17736000  0.31641000  0.21186000  1
  O  O45  1  0.33250000  0.22503000  0.26879000  1
  O  O46  1  0.37792000  0.44914000  0.51668000  1
  O  O47  1  0.39704000  0.60505000  0.64000000  1
  O  O48  1  0.42901000  0.66546000  0.39131000  1
  O  O49  1  0.45779000  0.29272000  0.43587000  1
  O  O50  1  0.56576000  0.74386000  0.58457000  1
  O  O51  1  0.60814000  0.40985000  0.32234000  1
  O  O52  1  0.61068000  0.36709000  0.62701000  1
  O  O53  1  0.62913000  0.55198000  0.46092000  1
  O  O54  1  0.69115000  0.68087000  0.83490000  1
  O  O55  1  0.83528000  0.70308000  0.75792000  1
