# generated using pymatgen
data_EuH16C24NO8
_symmetry_space_group_name_H-M   'P 1'
_cell_length_a   10.97900000
_cell_length_b   16.65050000
_cell_length_c   19.37950000
_cell_angle_alpha   90.00000000
_cell_angle_beta   90.00000000
_cell_angle_gamma   90.00000000
_symmetry_Int_Tables_number   1
_chemical_formula_structural   EuH16C24NO8
_chemical_formula_sum   'Eu4 H64 C96 N4 O32'
_cell_volume   3542.68576659
_cell_formula_units_Z   4
loop_
 _symmetry_equiv_pos_site_id
 _symmetry_equiv_pos_as_xyz
  1  'x, y, z'
loop_
 _atom_site_type_symbol
 _atom_site_label
 _atom_site_symmetry_multiplicity
 _atom_site_fract_x
 _atom_site_fract_y
 _atom_site_fract_z
 _atom_site_occupancy
  Eu  Eu0  1  0.21201000  0.75000000  0.20364000  1
  Eu  Eu1  1  0.28799000  0.25000000  0.70364000  1
  Eu  Eu2  1  0.71201000  0.75000000  0.29636000  1
  Eu  Eu3  1  0.78799000  0.25000000  0.79636000  1
  H  H4  1  0.01910000  0.25000000  0.07790000  1
  H  H5  1  0.02160000  0.01060000  0.67140000  1
  H  H6  1  0.02160000  0.48940000  0.67140000  1
  H  H7  1  0.03080000  0.67230000  0.45340000  1
  H  H8  1  0.03080000  0.82770000  0.45340000  1
  H  H9  1  0.03900000  0.75000000  0.03670000  1
  H  H10  1  0.04030000  0.10710000  0.37880000  1
  H  H11  1  0.04030000  0.39290000  0.37880000  1
  H  H12  1  0.06780000  0.18090000  0.48850000  1
  H  H13  1  0.06780000  0.31910000  0.48850000  1
  H  H14  1  0.14280000  0.75000000  0.69580000  1
  H  H15  1  0.18790000  0.56980000  0.46400000  1
  H  H16  1  0.18790000  0.75000000  0.40670000  1
  H  H17  1  0.18790000  0.93020000  0.46400000  1
  H  H18  1  0.24340000  0.54600000  0.01600000  1
  H  H19  1  0.24340000  0.95400000  0.01600000  1
  H  H20  1  0.25660000  0.04600000  0.51600000  1
  H  H21  1  0.25660000  0.45400000  0.51600000  1
  H  H22  1  0.31210000  0.06980000  0.96400000  1
  H  H23  1  0.31210000  0.25000000  0.90670000  1
  H  H24  1  0.31210000  0.43020000  0.96400000  1
  H  H25  1  0.35720000  0.25000000  0.19580000  1
  H  H26  1  0.43220000  0.68090000  0.98850000  1
  H  H27  1  0.43220000  0.81910000  0.98850000  1
  H  H28  1  0.45970000  0.60710000  0.87880000  1
  H  H29  1  0.45970000  0.89290000  0.87880000  1
  H  H30  1  0.46100000  0.25000000  0.53670000  1
  H  H31  1  0.46920000  0.17230000  0.95340000  1
  H  H32  1  0.46920000  0.32770000  0.95340000  1
  H  H33  1  0.47840000  0.51060000  0.17140000  1
  H  H34  1  0.47840000  0.98940000  0.17140000  1
  H  H35  1  0.48090000  0.75000000  0.57790000  1
  H  H36  1  0.51910000  0.25000000  0.42210000  1
  H  H37  1  0.52160000  0.01060000  0.82860000  1
  H  H38  1  0.52160000  0.48940000  0.82860000  1
  H  H39  1  0.53080000  0.67230000  0.04660000  1
  H  H40  1  0.53080000  0.82770000  0.04660000  1
  H  H41  1  0.53900000  0.75000000  0.46330000  1
  H  H42  1  0.54030000  0.10710000  0.12120000  1
  H  H43  1  0.54030000  0.39290000  0.12120000  1
  H  H44  1  0.56780000  0.18090000  0.01150000  1
  H  H45  1  0.56780000  0.31910000  0.01150000  1
  H  H46  1  0.64280000  0.75000000  0.80420000  1
  H  H47  1  0.68790000  0.56980000  0.03600000  1
  H  H48  1  0.68790000  0.75000000  0.09330000  1
  H  H49  1  0.68790000  0.93020000  0.03600000  1
  H  H50  1  0.74340000  0.54600000  0.48400000  1
  H  H51  1  0.74340000  0.95400000  0.48400000  1
  H  H52  1  0.75660000  0.04600000  0.98400000  1
  H  H53  1  0.75660000  0.45400000  0.98400000  1
  H  H54  1  0.81210000  0.06980000  0.53600000  1
  H  H55  1  0.81210000  0.25000000  0.59330000  1
  H  H56  1  0.81210000  0.43020000  0.53600000  1
  H  H57  1  0.85720000  0.25000000  0.30420000  1
  H  H58  1  0.93220000  0.68090000  0.51150000  1
  H  H59  1  0.93220000  0.81910000  0.51150000  1
  H  H60  1  0.95970000  0.60710000  0.62120000  1
  H  H61  1  0.95970000  0.89290000  0.62120000  1
  H  H62  1  0.96100000  0.25000000  0.96330000  1
  H  H63  1  0.96920000  0.17230000  0.54660000  1
  H  H64  1  0.96920000  0.32770000  0.54660000  1
  H  H65  1  0.97840000  0.51060000  0.32860000  1
  H  H66  1  0.97840000  0.98940000  0.32860000  1
  H  H67  1  0.98090000  0.75000000  0.92210000  1
  C  C68  1  0.01860000  0.57590000  0.59950000  1
  C  C69  1  0.01860000  0.92410000  0.59950000  1
  C  C70  1  0.01900000  0.67640000  0.50290000  1
  C  C71  1  0.01900000  0.82360000  0.50290000  1
  C  C72  1  0.04320000  0.25000000  0.97490000  1
  C  C73  1  0.05670000  0.50570000  0.63000000  1
  C  C74  1  0.05670000  0.99430000  0.63000000  1
  C  C75  1  0.06670000  0.60090000  0.53720000  1
  C  C76  1  0.06670000  0.89910000  0.53720000  1
  C  C77  1  0.07830000  0.25000000  0.04360000  1
  C  C78  1  0.09630000  0.25000000  0.84880000  1
  C  C79  1  0.13080000  0.25000000  0.92350000  1
  C  C80  1  0.14550000  0.04060000  0.60028000  1
  C  C81  1  0.14550000  0.45940000  0.60028000  1
  C  C82  1  0.15530000  0.55410000  0.50620000  1
  C  C83  1  0.15530000  0.94590000  0.50620000  1
  C  C84  1  0.18670000  0.11780000  0.63210000  1
  C  C85  1  0.18670000  0.38220000  0.63210000  1
  C  C86  1  0.19600000  0.01560000  0.53700000  1
  C  C87  1  0.19600000  0.48440000  0.53700000  1
  C  C88  1  0.20190000  0.25000000  0.06210000  1
  C  C89  1  0.21210000  0.75000000  0.51020000  1
  C  C90  1  0.22950000  0.25000000  0.13850000  1
  C  C91  1  0.24700000  0.75000000  0.44120000  1
  C  C92  1  0.25300000  0.25000000  0.94120000  1
  C  C93  1  0.27050000  0.75000000  0.63850000  1
  C  C94  1  0.28790000  0.25000000  0.01020000  1
  C  C95  1  0.29810000  0.75000000  0.56210000  1
  C  C96  1  0.30400000  0.51560000  0.03700000  1
  C  C97  1  0.30400000  0.98440000  0.03700000  1
  C  C98  1  0.31330000  0.61780000  0.13210000  1
  C  C99  1  0.31330000  0.88220000  0.13210000  1
  C  C100  1  0.34470000  0.05410000  0.00620000  1
  C  C101  1  0.34470000  0.44590000  0.00620000  1
  C  C102  1  0.35450000  0.54060000  0.10028000  1
  C  C103  1  0.35450000  0.95940000  0.10028000  1
  C  C104  1  0.36920000  0.75000000  0.42350000  1
  C  C105  1  0.40370000  0.75000000  0.34880000  1
  C  C106  1  0.42170000  0.75000000  0.54360000  1
  C  C107  1  0.43330000  0.10090000  0.03720000  1
  C  C108  1  0.43330000  0.39910000  0.03720000  1
  C  C109  1  0.44330000  0.00570000  0.13000000  1
  C  C110  1  0.44330000  0.49430000  0.13000000  1
  C  C111  1  0.45680000  0.75000000  0.47490000  1
  C  C112  1  0.48100000  0.17640000  0.00290000  1
  C  C113  1  0.48100000  0.32360000  0.00290000  1
  C  C114  1  0.48140000  0.07590000  0.09950000  1
  C  C115  1  0.48140000  0.42410000  0.09950000  1
  C  C116  1  0.51860000  0.57590000  0.90050000  1
  C  C117  1  0.51860000  0.92410000  0.90050000  1
  C  C118  1  0.51900000  0.67640000  0.99710000  1
  C  C119  1  0.51900000  0.82360000  0.99710000  1
  C  C120  1  0.54320000  0.25000000  0.52510000  1
  C  C121  1  0.55670000  0.50570000  0.87000000  1
  C  C122  1  0.55670000  0.99430000  0.87000000  1
  C  C123  1  0.56670000  0.60090000  0.96280000  1
  C  C124  1  0.56670000  0.89910000  0.96280000  1
  C  C125  1  0.57830000  0.25000000  0.45640000  1
  C  C126  1  0.59630000  0.25000000  0.65120000  1
  C  C127  1  0.63080000  0.25000000  0.57650000  1
  C  C128  1  0.64550000  0.04060000  0.89972000  1
  C  C129  1  0.64550000  0.45940000  0.89972000  1
  C  C130  1  0.65530000  0.55410000  0.99380000  1
  C  C131  1  0.65530000  0.94590000  0.99380000  1
  C  C132  1  0.68670000  0.11780000  0.86790000  1
  C  C133  1  0.68670000  0.38220000  0.86790000  1
  C  C134  1  0.69600000  0.01560000  0.96300000  1
  C  C135  1  0.69600000  0.48440000  0.96300000  1
  C  C136  1  0.70190000  0.25000000  0.43790000  1
  C  C137  1  0.71210000  0.75000000  0.98980000  1
  C  C138  1  0.72950000  0.25000000  0.36150000  1
  C  C139  1  0.74700000  0.75000000  0.05880000  1
  C  C140  1  0.75300000  0.25000000  0.55880000  1
  C  C141  1  0.77050000  0.75000000  0.86150000  1
  C  C142  1  0.78790000  0.25000000  0.48980000  1
  C  C143  1  0.79810000  0.75000000  0.93790000  1
  C  C144  1  0.80400000  0.51560000  0.46300000  1
  C  C145  1  0.80400000  0.98440000  0.46300000  1
  C  C146  1  0.81330000  0.61780000  0.36790000  1
  C  C147  1  0.81330000  0.88220000  0.36790000  1
  C  C148  1  0.84470000  0.05410000  0.49380000  1
  C  C149  1  0.84470000  0.44590000  0.49380000  1
  C  C150  1  0.85450000  0.54060000  0.39972000  1
  C  C151  1  0.85450000  0.95940000  0.39972000  1
  C  C152  1  0.86920000  0.75000000  0.07650000  1
  C  C153  1  0.90370000  0.75000000  0.15120000  1
  C  C154  1  0.92170000  0.75000000  0.95640000  1
  C  C155  1  0.93330000  0.10090000  0.46280000  1
  C  C156  1  0.93330000  0.39910000  0.46280000  1
  C  C157  1  0.94330000  0.00570000  0.37000000  1
  C  C158  1  0.94330000  0.49430000  0.37000000  1
  C  C159  1  0.95680000  0.75000000  0.02510000  1
  C  C160  1  0.98100000  0.17640000  0.49710000  1
  C  C161  1  0.98100000  0.32360000  0.49710000  1
  C  C162  1  0.98140000  0.07590000  0.40050000  1
  C  C163  1  0.98140000  0.42410000  0.40050000  1
  N  N164  1  0.08140000  0.75000000  0.52880000  1
  N  N165  1  0.41860000  0.25000000  0.02880000  1
  N  N166  1  0.58140000  0.75000000  0.97120000  1
  N  N167  1  0.91860000  0.25000000  0.47120000  1
  O  O168  1  0.01430000  0.75000000  0.16530000  1
  O  O169  1  0.13100000  0.14521000  0.68412000  1
  O  O170  1  0.13100000  0.35479000  0.68412000  1
  O  O171  1  0.15140000  0.25000000  0.18140000  1
  O  O172  1  0.15150000  0.75000000  0.65380000  1
  O  O173  1  0.17960000  0.25000000  0.80552000  1
  O  O174  1  0.22330000  0.65480000  0.10727000  1
  O  O175  1  0.22330000  0.84520000  0.10727000  1
  O  O176  1  0.27670000  0.15480000  0.60727000  1
  O  O177  1  0.27670000  0.34520000  0.60727000  1
  O  O178  1  0.32040000  0.75000000  0.30552000  1
  O  O179  1  0.34850000  0.25000000  0.15380000  1
  O  O180  1  0.34860000  0.75000000  0.68140000  1
  O  O181  1  0.36900000  0.64521000  0.18412000  1
  O  O182  1  0.36900000  0.85479000  0.18412000  1
  O  O183  1  0.48570000  0.25000000  0.66530000  1
  O  O184  1  0.51430000  0.75000000  0.33470000  1
  O  O185  1  0.63100000  0.14521000  0.81588000  1
  O  O186  1  0.63100000  0.35479000  0.81588000  1
  O  O187  1  0.65140000  0.25000000  0.31860000  1
  O  O188  1  0.65150000  0.75000000  0.84620000  1
  O  O189  1  0.67960000  0.25000000  0.69448000  1
  O  O190  1  0.72330000  0.65480000  0.39273000  1
  O  O191  1  0.72330000  0.84520000  0.39273000  1
  O  O192  1  0.77670000  0.15480000  0.89273000  1
  O  O193  1  0.77670000  0.34520000  0.89273000  1
  O  O194  1  0.82040000  0.75000000  0.19448000  1
  O  O195  1  0.84850000  0.25000000  0.34620000  1
  O  O196  1  0.84860000  0.75000000  0.81860000  1
  O  O197  1  0.86900000  0.64521000  0.31588000  1
  O  O198  1  0.86900000  0.85479000  0.31588000  1
  O  O199  1  0.98570000  0.25000000  0.83470000  1
