# generated using pymatgen
data_CdH6C10(NO)4
_symmetry_space_group_name_H-M   'P 1'
_cell_length_a   26.13178462
_cell_length_b   26.13150000
_cell_length_c   26.13150000
_cell_angle_alpha   109.47100000
_cell_angle_beta   109.47144127
_cell_angle_gamma   109.47144127
_symmetry_Int_Tables_number   1
_chemical_formula_structural   CdH6C10(NO)4
_chemical_formula_sum   'Cd24 H144 C240 N96 O96'
_cell_volume   13736.45526939
_cell_formula_units_Z   24
loop_
 _symmetry_equiv_pos_site_id
 _symmetry_equiv_pos_as_xyz
  1  'x, y, z'
loop_
 _atom_site_type_symbol
 _atom_site_label
 _atom_site_symmetry_multiplicity
 _atom_site_fract_x
 _atom_site_fract_y
 _atom_site_fract_z
 _atom_site_occupancy
  Cd  Cd0  1  0.35487000  0.64513000  0.50000000  1
  Cd  Cd1  1  0.14513000  0.64513000  0.29026000  1
  Cd  Cd2  1  0.70974000  0.35487000  0.85487000  1
  Cd  Cd3  1  0.50000000  0.35487000  0.64513000  1
  Cd  Cd4  1  0.35487000  0.50000000  0.64513000  1
  Cd  Cd5  1  0.85487000  0.50000000  0.14513000  1
  Cd  Cd6  1  0.35487000  0.85487000  0.70974000  1
  Cd  Cd7  1  0.50000000  0.14513000  0.85487000  1
  Cd  Cd8  1  0.14513000  0.85487000  0.50000000  1
  Cd  Cd9  1  0.29026000  0.14513000  0.64513000  1
  Cd  Cd10  1  0.14513000  0.29026000  0.64513000  1
  Cd  Cd11  1  0.35487000  0.70974000  0.85487000  1
  Cd  Cd12  1  0.64513000  0.29026000  0.14513000  1
  Cd  Cd13  1  0.85487000  0.70974000  0.35487000  1
  Cd  Cd14  1  0.70974000  0.85487000  0.35487000  1
  Cd  Cd15  1  0.85487000  0.14513000  0.50000000  1
  Cd  Cd16  1  0.50000000  0.85487000  0.14513000  1
  Cd  Cd17  1  0.64513000  0.14513000  0.29026000  1
  Cd  Cd18  1  0.14513000  0.50000000  0.85487000  1
  Cd  Cd19  1  0.64513000  0.50000000  0.35487000  1
  Cd  Cd20  1  0.50000000  0.64513000  0.35487000  1
  Cd  Cd21  1  0.29026000  0.64513000  0.14513000  1
  Cd  Cd22  1  0.85487000  0.35487000  0.70974000  1
  Cd  Cd23  1  0.64513000  0.35487000  0.50000000  1
  H  H24  1  0.29230000  0.44780000  0.29230000  1
  H  H25  1  0.15550000  0.44780000  0.15550000  1
  H  H26  1  0.84450000  0.55220000  0.84450000  1
  H  H27  1  0.70770000  0.55220000  0.70770000  1
  H  H28  1  0.38440000  0.83520000  0.45080000  1
  H  H29  1  0.54920000  0.16480000  0.61560000  1
  H  H30  1  0.41440000  0.78310000  0.50130000  1
  H  H31  1  0.28180000  0.78310000  0.36870000  1
  H  H32  1  0.63130000  0.21690000  0.71820000  1
  H  H33  1  0.49870000  0.21690000  0.58560000  1
  H  H34  1  0.28310000  0.50010000  0.37740000  1
  H  H35  1  0.12270000  0.50010000  0.21700000  1
  H  H36  1  0.78300000  0.49990000  0.87730000  1
  H  H37  1  0.62260000  0.49990000  0.71690000  1
  H  H38  1  0.49990000  0.71690000  0.62260000  1
  H  H39  1  0.78300000  0.28310000  0.90570000  1
  H  H40  1  0.09430000  0.71690000  0.21700000  1
  H  H41  1  0.37740000  0.28310000  0.50010000  1
  H  H42  1  0.29230000  0.29230000  0.44780000  1
  H  H43  1  0.55220000  0.70770000  0.70770000  1
  H  H44  1  0.84450000  0.29230000  1.00000000  1
  H  H45  1  0.00000000  0.70770000  0.15550000  1
  H  H46  1  0.38440000  0.93360000  0.54920000  1
  H  H47  1  0.45080000  0.06640000  0.61560000  1
  H  H48  1  0.41440000  0.91310000  0.63130000  1
  H  H49  1  0.50130000  0.08690000  0.71820000  1
  H  H50  1  0.28180000  0.91310000  0.49870000  1
  H  H51  1  0.36870000  0.08690000  0.58560000  1
  H  H52  1  0.28310000  0.37740000  0.50010000  1
  H  H53  1  0.49990000  0.62260000  0.71690000  1
  H  H54  1  0.87730000  0.37740000  0.09430000  1
  H  H55  1  0.90570000  0.62260000  0.12270000  1
  H  H56  1  0.21690000  0.58560000  0.49870000  1
  H  H57  1  0.08690000  0.58560000  0.36870000  1
  H  H58  1  0.63130000  0.41440000  0.91310000  1
  H  H59  1  0.50130000  0.41440000  0.78310000  1
  H  H60  1  0.49990000  0.87730000  0.78300000  1
  H  H61  1  0.62260000  0.12270000  0.90570000  1
  H  H62  1  0.09430000  0.87730000  0.37740000  1
  H  H63  1  0.21700000  0.12270000  0.50010000  1
  H  H64  1  0.15550000  0.15550000  0.44780000  1
  H  H65  1  0.55220000  0.84450000  0.84450000  1
  H  H66  1  0.70770000  0.15550000  1.00000000  1
  H  H67  1  0.00000000  0.84450000  0.29230000  1
  H  H68  1  0.41440000  0.50130000  0.78310000  1
  H  H69  1  0.21690000  0.49870000  0.58560000  1
  H  H70  1  0.91310000  0.49870000  0.28180000  1
  H  H71  1  0.71820000  0.50130000  0.08690000  1
  H  H72  1  0.12270000  0.21700000  0.50010000  1
  H  H73  1  0.49990000  0.78300000  0.87730000  1
  H  H74  1  0.71690000  0.21700000  0.09430000  1
  H  H75  1  0.90570000  0.78300000  0.28310000  1
  H  H76  1  0.16480000  0.61560000  0.54920000  1
  H  H77  1  0.06640000  0.61560000  0.45080000  1
  H  H78  1  0.54920000  0.38440000  0.93360000  1
  H  H79  1  0.45080000  0.38440000  0.83520000  1
  H  H80  1  0.21690000  0.71820000  0.63130000  1
  H  H81  1  0.08690000  0.71820000  0.50130000  1
  H  H82  1  0.49870000  0.28180000  0.91310000  1
  H  H83  1  0.36870000  0.28180000  0.78310000  1
  H  H84  1  0.84450000  0.00000000  0.29230000  1
  H  H85  1  0.70770000  0.00000000  0.15550000  1
  H  H86  1  0.38440000  0.45080000  0.83520000  1
  H  H87  1  0.16480000  0.54920000  0.61560000  1
  H  H88  1  0.93360000  0.54920000  0.38440000  1
  H  H89  1  0.61560000  0.45080000  0.06640000  1
  H  H90  1  0.41440000  0.63130000  0.91310000  1
  H  H91  1  0.08690000  0.36870000  0.58560000  1
  H  H92  1  0.78310000  0.36870000  0.28180000  1
  H  H93  1  0.71820000  0.63130000  0.21690000  1
  H  H94  1  0.28310000  0.90570000  0.78300000  1
  H  H95  1  0.37740000  0.09430000  0.87730000  1
  H  H96  1  0.12270000  0.90570000  0.62260000  1
  H  H97  1  0.21700000  0.09430000  0.71690000  1
  H  H98  1  0.78300000  0.90570000  0.28310000  1
  H  H99  1  0.87730000  0.09430000  0.37740000  1
  H  H100  1  0.62260000  0.90570000  0.12270000  1
  H  H101  1  0.71690000  0.09430000  0.21700000  1
  H  H102  1  0.28180000  0.36870000  0.78310000  1
  H  H103  1  0.21690000  0.63130000  0.71820000  1
  H  H104  1  0.91310000  0.63130000  0.41440000  1
  H  H105  1  0.58560000  0.36870000  0.08690000  1
  H  H106  1  0.38440000  0.54920000  0.93360000  1
  H  H107  1  0.06640000  0.45080000  0.61560000  1
  H  H108  1  0.83520000  0.45080000  0.38440000  1
  H  H109  1  0.61560000  0.54920000  0.16480000  1
  H  H110  1  0.29230000  0.00000000  0.84450000  1
  H  H111  1  0.15550000  1.00000000  0.70770000  1
  H  H112  1  0.63130000  0.71820000  0.21690000  1
  H  H113  1  0.50130000  0.71820000  0.08690000  1
  H  H114  1  0.91310000  0.28180000  0.49870000  1
  H  H115  1  0.78310000  0.28180000  0.36870000  1
  H  H116  1  0.54920000  0.61560000  0.16480000  1
  H  H117  1  0.45080000  0.61560000  0.06640000  1
  H  H118  1  0.93360000  0.38440000  0.54920000  1
  H  H119  1  0.83520000  0.38440000  0.45080000  1
  H  H120  1  0.09430000  0.21700000  0.71690000  1
  H  H121  1  0.28310000  0.78300000  0.90570000  1
  H  H122  1  0.50010000  0.21700000  0.12270000  1
  H  H123  1  0.87730000  0.78300000  0.49990000  1
  H  H124  1  0.28180000  0.49870000  0.91310000  1
  H  H125  1  0.08690000  0.50130000  0.71820000  1
  H  H126  1  0.78310000  0.50130000  0.41440000  1
  H  H127  1  0.58560000  0.49870000  0.21690000  1
  H  H128  1  0.84450000  0.84450000  0.55220000  1
  H  H129  1  1.00000000  0.15550000  0.70770000  1
  H  H130  1  0.29230000  0.84450000  1.00000000  1
  H  H131  1  0.44780000  0.15550000  0.15550000  1
  H  H132  1  0.78300000  0.87730000  0.49990000  1
  H  H133  1  0.90570000  0.12270000  0.62260000  1
  H  H134  1  0.37740000  0.87730000  0.09430000  1
  H  H135  1  0.50010000  0.12270000  0.21700000  1
  H  H136  1  0.49870000  0.58560000  0.21690000  1
  H  H137  1  0.36870000  0.58560000  0.08690000  1
  H  H138  1  0.91310000  0.41440000  0.63130000  1
  H  H139  1  0.78310000  0.41440000  0.50130000  1
  H  H140  1  0.09430000  0.37740000  0.87730000  1
  H  H141  1  0.12270000  0.62260000  0.90570000  1
  H  H142  1  0.50010000  0.37740000  0.28310000  1
  H  H143  1  0.71690000  0.62260000  0.49990000  1
  H  H144  1  0.63130000  0.91310000  0.41440000  1
  H  H145  1  0.71820000  0.08690000  0.50130000  1
  H  H146  1  0.49870000  0.91310000  0.28180000  1
  H  H147  1  0.58560000  0.08690000  0.36870000  1
  H  H148  1  0.54920000  0.93360000  0.38440000  1
  H  H149  1  0.61560000  0.06640000  0.45080000  1
  H  H150  1  0.70770000  0.70770000  0.55220000  1
  H  H151  1  0.00000000  0.29230000  0.84450000  1
  H  H152  1  0.15550000  0.70770000  1.00000000  1
  H  H153  1  0.44780000  0.29230000  0.29230000  1
  H  H154  1  0.62260000  0.71690000  0.49990000  1
  H  H155  1  0.90570000  0.28310000  0.78300000  1
  H  H156  1  0.21700000  0.71690000  0.09430000  1
  H  H157  1  0.50010000  0.28310000  0.37740000  1
  H  H158  1  0.37740000  0.50010000  0.28310000  1
  H  H159  1  0.21700000  0.50010000  0.12270000  1
  H  H160  1  0.87730000  0.49990000  0.78300000  1
  H  H161  1  0.71690000  0.49990000  0.62260000  1
  H  H162  1  0.50130000  0.78310000  0.41440000  1
  H  H163  1  0.36870000  0.78310000  0.28180000  1
  H  H164  1  0.71820000  0.21690000  0.63130000  1
  H  H165  1  0.58560000  0.21690000  0.49870000  1
  H  H166  1  0.45080000  0.83520000  0.38440000  1
  H  H167  1  0.61560000  0.16480000  0.54920000  1
  C  C168  1  0.32270000  0.48940000  0.32270000  1
  C  C169  1  0.40860000  0.60500000  0.40860000  1
  C  C170  1  0.46040000  0.67280000  0.46040000  1
  C  C171  1  0.16670000  0.48940000  0.16670000  1
  C  C172  1  0.19640000  0.60500000  0.19640000  1
  C  C173  1  0.21240000  0.67280000  0.21240000  1
  C  C174  1  0.78760000  0.32720000  0.78760000  1
  C  C175  1  0.80360000  0.39500000  0.80360000  1
  C  C176  1  0.83330000  0.51060000  0.83330000  1
  C  C177  1  0.53960000  0.32720000  0.53960000  1
  C  C178  1  0.59140000  0.39500000  0.59140000  1
  C  C179  1  0.67730000  0.51060000  0.67730000  1
  C  C180  1  0.31720000  0.52020000  0.37340000  1
  C  C181  1  0.14680000  0.52020000  0.20300000  1
  C  C182  1  0.79700000  0.47980000  0.85320000  1
  C  C183  1  0.62660000  0.47980000  0.68280000  1
  C  C184  1  0.35610000  0.79450000  0.43840000  1
  C  C185  1  0.56160000  0.20550000  0.64390000  1
  C  C186  1  0.37370000  0.76310000  0.46820000  1
  C  C187  1  0.29490000  0.76310000  0.38940000  1
  C  C188  1  0.61060000  0.23690000  0.70510000  1
  C  C189  1  0.53180000  0.23690000  0.62630000  1
  C  C190  1  0.27550000  0.67860000  0.40310000  1
  C  C191  1  0.59690000  0.32140000  0.72450000  1
  C  C192  1  0.47980000  0.68280000  0.62660000  1
  C  C193  1  0.79700000  0.31720000  0.94380000  1
  C  C194  1  0.05620000  0.68280000  0.20300000  1
  C  C195  1  0.37340000  0.31720000  0.52020000  1
  C  C196  1  0.22900000  0.61150000  0.38250000  1
  C  C197  1  0.61750000  0.38850000  0.77100000  1
  C  C198  1  0.32270000  0.32270000  0.48940000  1
  C  C199  1  0.51060000  0.67730000  0.67730000  1
  C  C200  1  0.83330000  0.32270000  1.00000000  1
  C  C201  1  0.00000000  0.67730000  0.16670000  1
  C  C202  1  0.40860000  0.40860000  0.60500000  1
  C  C203  1  0.39500000  0.59140000  0.59140000  1
  C  C204  1  0.00000000  0.59140000  0.19640000  1
  C  C205  1  0.80360000  0.40860000  1.00000000  1
  C  C206  1  0.31720000  0.37340000  0.52020000  1
  C  C207  1  0.47980000  0.62660000  0.68280000  1
  C  C208  1  0.85320000  0.37340000  0.05620000  1
  C  C209  1  0.94380000  0.62660000  0.14680000  1
  C  C210  1  0.35610000  0.91770000  0.56160000  1
  C  C211  1  0.43840000  0.08230000  0.64390000  1
  C  C212  1  0.46040000  0.46040000  0.67280000  1
  C  C213  1  0.32720000  0.53960000  0.53960000  1
  C  C214  1  0.00000000  0.53960000  0.21240000  1
  C  C215  1  0.78760000  0.46040000  1.00000000  1
  C  C216  1  0.38850000  0.77100000  0.61750000  1
  C  C217  1  0.61750000  0.22900000  0.84650000  1
  C  C218  1  0.15350000  0.77100000  0.38250000  1
  C  C219  1  0.38250000  0.22900000  0.61150000  1
  C  C220  1  0.37370000  0.90550000  0.61060000  1
  C  C221  1  0.29490000  0.90550000  0.53180000  1
  C  C222  1  0.46820000  0.09450000  0.70510000  1
  C  C223  1  0.38940000  0.09450000  0.62630000  1
  C  C224  1  0.32140000  0.72450000  0.59690000  1
  C  C225  1  0.12760000  0.72450000  0.40310000  1
  C  C226  1  0.59690000  0.27550000  0.87240000  1
  C  C227  1  0.40310000  0.27550000  0.67860000  1
  C  C228  1  0.23690000  0.62630000  0.53180000  1
  C  C229  1  0.09450000  0.62630000  0.38940000  1
  C  C230  1  0.61060000  0.37370000  0.90550000  1
  C  C231  1  0.46820000  0.37370000  0.76310000  1
  C  C232  1  0.47980000  0.85320000  0.79700000  1
  C  C233  1  0.62660000  0.14680000  0.94380000  1
  C  C234  1  0.05620000  0.85320000  0.37340000  1
  C  C235  1  0.20300000  0.14680000  0.52020000  1
  C  C236  1  0.27550000  0.87240000  0.59690000  1
  C  C237  1  0.40310000  0.12760000  0.72450000  1
  C  C238  1  0.16670000  0.16670000  0.48940000  1
  C  C239  1  0.51060000  0.83330000  0.83330000  1
  C  C240  1  0.67730000  0.16670000  1.00000000  1
  C  C241  1  0.00000000  0.83330000  0.32270000  1
  C  C242  1  0.46040000  1.00000000  0.78760000  1
  C  C243  1  0.21240000  1.00000000  0.53960000  1
  C  C244  1  0.20550000  0.64390000  0.56160000  1
  C  C245  1  0.08230000  0.64390000  0.43840000  1
  C  C246  1  0.56160000  0.35610000  0.91770000  1
  C  C247  1  0.43840000  0.35610000  0.79450000  1
  C  C248  1  0.14680000  0.20300000  0.52020000  1
  C  C249  1  0.47980000  0.79700000  0.85320000  1
  C  C250  1  0.68280000  0.20300000  0.05620000  1
  C  C251  1  0.94380000  0.79700000  0.31720000  1
  C  C252  1  0.23690000  0.70510000  0.61060000  1
  C  C253  1  0.09450000  0.70510000  0.46820000  1
  C  C254  1  0.53180000  0.29490000  0.90550000  1
  C  C255  1  0.38940000  0.29490000  0.76310000  1
  C  C256  1  0.22900000  0.38250000  0.61150000  1
  C  C257  1  0.38850000  0.61750000  0.77100000  1
  C  C258  1  0.77100000  0.38250000  0.15350000  1
  C  C259  1  0.84650000  0.61750000  0.22900000  1
  C  C260  1  0.22900000  0.84650000  0.61750000  1
  C  C261  1  0.38250000  0.15350000  0.77100000  1
  C  C262  1  0.37370000  0.46820000  0.76310000  1
  C  C263  1  0.23690000  0.53180000  0.62630000  1
  C  C264  1  0.90550000  0.53180000  0.29490000  1
  C  C265  1  0.70510000  0.46820000  0.09450000  1
  C  C266  1  0.40860000  1.00000000  0.80360000  1
  C  C267  1  0.19640000  0.00000000  0.59140000  1
  C  C268  1  0.27550000  0.40310000  0.67860000  1
  C  C269  1  0.32140000  0.59690000  0.72450000  1
  C  C270  1  0.72450000  0.40310000  0.12760000  1
  C  C271  1  0.87240000  0.59690000  0.27550000  1
  C  C272  1  0.19640000  0.19640000  0.60500000  1
  C  C273  1  0.39500000  0.80360000  0.80360000  1
  C  C274  1  0.59140000  0.19640000  1.00000000  1
  C  C275  1  1.00000000  0.80360000  0.40860000  1
  C  C276  1  0.35610000  0.43840000  0.79450000  1
  C  C277  1  0.20550000  0.56160000  0.64390000  1
  C  C278  1  0.91770000  0.56160000  0.35610000  1
  C  C279  1  0.64390000  0.43840000  0.08230000  1
  C  C280  1  0.21240000  0.21240000  0.67280000  1
  C  C281  1  0.32720000  0.78760000  0.78760000  1
  C  C282  1  0.53960000  0.21240000  1.00000000  1
  C  C283  1  0.00000000  0.78760000  0.46040000  1
  C  C284  1  0.29490000  0.38940000  0.76310000  1
  C  C285  1  0.23690000  0.61060000  0.70510000  1
  C  C286  1  0.90550000  0.61060000  0.37370000  1
  C  C287  1  0.62630000  0.38940000  0.09450000  1
  C  C288  1  0.31720000  0.94380000  0.79700000  1
  C  C289  1  0.37340000  0.05620000  0.85320000  1
  C  C290  1  0.14680000  0.94380000  0.62660000  1
  C  C291  1  0.20300000  0.05620000  0.68280000  1
  C  C292  1  0.83330000  1.00000000  0.32270000  1
  C  C293  1  0.67730000  1.00000000  0.16670000  1
  C  C294  1  0.32270000  1.00000000  0.83330000  1
  C  C295  1  0.16670000  1.00000000  0.67730000  1
  C  C296  1  0.79700000  0.94380000  0.31720000  1
  C  C297  1  0.85320000  0.05620000  0.37340000  1
  C  C298  1  0.62660000  0.94380000  0.14680000  1
  C  C299  1  0.68280000  0.05620000  0.20300000  1
  C  C300  1  0.37370000  0.61060000  0.90550000  1
  C  C301  1  0.09450000  0.38940000  0.62630000  1
  C  C302  1  0.76310000  0.38940000  0.29490000  1
  C  C303  1  0.70510000  0.61060000  0.23690000  1
  C  C304  1  0.78760000  0.78760000  0.32720000  1
  C  C305  1  0.00000000  0.21240000  0.53960000  1
  C  C306  1  0.46040000  0.78760000  1.00000000  1
  C  C307  1  0.67280000  0.21240000  0.21240000  1
  C  C308  1  0.35610000  0.56160000  0.91770000  1
  C  C309  1  0.08230000  0.43840000  0.64390000  1
  C  C310  1  0.79450000  0.43840000  0.35610000  1
  C  C311  1  0.64390000  0.56160000  0.20550000  1
  C  C312  1  0.80360000  0.80360000  0.39500000  1
  C  C313  1  1.00000000  0.19640000  0.59140000  1
  C  C314  1  0.40860000  0.80360000  1.00000000  1
  C  C315  1  0.60500000  0.19640000  0.19640000  1
  C  C316  1  0.12760000  0.40310000  0.72450000  1
  C  C317  1  0.27550000  0.59690000  0.87240000  1
  C  C318  1  0.67860000  0.40310000  0.27550000  1
  C  C319  1  0.72450000  0.59690000  0.32140000  1
  C  C320  1  0.80360000  1.00000000  0.40860000  1
  C  C321  1  0.59140000  1.00000000  0.19640000  1
  C  C322  1  0.29490000  0.53180000  0.90550000  1
  C  C323  1  0.09450000  0.46820000  0.70510000  1
  C  C324  1  0.76310000  0.46820000  0.37370000  1
  C  C325  1  0.62630000  0.53180000  0.23690000  1
  C  C326  1  0.61750000  0.84650000  0.22900000  1
  C  C327  1  0.77100000  0.15350000  0.38250000  1
  C  C328  1  0.15350000  0.38250000  0.77100000  1
  C  C329  1  0.22900000  0.61750000  0.84650000  1
  C  C330  1  0.61150000  0.38250000  0.22900000  1
  C  C331  1  0.77100000  0.61750000  0.38850000  1
  C  C332  1  0.61060000  0.70510000  0.23690000  1
  C  C333  1  0.46820000  0.70510000  0.09450000  1
  C  C334  1  0.90550000  0.29490000  0.53180000  1
  C  C335  1  0.76310000  0.29490000  0.38940000  1
  C  C336  1  0.05620000  0.20300000  0.68280000  1
  C  C337  1  0.31720000  0.79700000  0.94380000  1
  C  C338  1  0.52020000  0.20300000  0.14680000  1
  C  C339  1  0.85320000  0.79700000  0.47980000  1
  C  C340  1  0.56160000  0.64390000  0.20550000  1
  C  C341  1  0.43840000  0.64390000  0.08230000  1
  C  C342  1  0.91770000  0.35610000  0.56160000  1
  C  C343  1  0.79450000  0.35610000  0.43840000  1
  C  C344  1  0.78760000  0.00000000  0.46040000  1
  C  C345  1  0.53960000  0.00000000  0.21240000  1
  C  C346  1  0.83330000  0.83330000  0.51060000  1
  C  C347  1  0.00000000  0.16670000  0.67730000  1
  C  C348  1  0.32270000  0.83330000  1.00000000  1
  C  C349  1  0.48940000  0.16670000  0.16670000  1
  C  C350  1  0.59690000  0.87240000  0.27550000  1
  C  C351  1  0.72450000  0.12760000  0.40310000  1
  C  C352  1  0.79700000  0.85320000  0.47980000  1
  C  C353  1  0.94380000  0.14680000  0.62660000  1
  C  C354  1  0.37340000  0.85320000  0.05620000  1
  C  C355  1  0.52020000  0.14680000  0.20300000  1
  C  C356  1  0.53180000  0.62630000  0.23690000  1
  C  C357  1  0.38940000  0.62630000  0.09450000  1
  C  C358  1  0.90550000  0.37370000  0.61060000  1
  C  C359  1  0.76310000  0.37370000  0.46820000  1
  C  C360  1  0.59690000  0.72450000  0.32140000  1
  C  C361  1  0.40310000  0.72450000  0.12760000  1
  C  C362  1  0.87240000  0.27550000  0.59690000  1
  C  C363  1  0.67860000  0.27550000  0.40310000  1
  C  C364  1  0.61060000  0.90550000  0.37370000  1
  C  C365  1  0.53180000  0.90550000  0.29490000  1
  C  C366  1  0.70510000  0.09450000  0.46820000  1
  C  C367  1  0.62630000  0.09450000  0.38940000  1
  C  C368  1  0.61750000  0.77100000  0.38850000  1
  C  C369  1  0.84650000  0.22900000  0.61750000  1
  C  C370  1  0.38250000  0.77100000  0.15350000  1
  C  C371  1  0.61150000  0.22900000  0.38250000  1
  C  C372  1  0.53960000  0.53960000  0.32720000  1
  C  C373  1  0.21240000  0.53960000  1.00000000  1
  C  C374  1  0.00000000  0.46040000  0.78760000  1
  C  C375  1  0.67280000  0.46040000  0.46040000  1
  C  C376  1  0.56160000  0.91770000  0.35610000  1
  C  C377  1  0.64390000  0.08230000  0.43840000  1
  C  C378  1  0.05620000  0.37340000  0.85320000  1
  C  C379  1  0.14680000  0.62660000  0.94380000  1
  C  C380  1  0.52020000  0.37340000  0.31720000  1
  C  C381  1  0.68280000  0.62660000  0.47980000  1
  C  C382  1  0.59140000  0.59140000  0.39500000  1
  C  C383  1  0.19640000  0.59140000  1.00000000  1
  C  C384  1  1.00000000  0.40860000  0.80360000  1
  C  C385  1  0.60500000  0.40860000  0.40860000  1
  C  C386  1  0.67730000  0.67730000  0.51060000  1
  C  C387  1  1.00000000  0.32270000  0.83330000  1
  C  C388  1  0.16670000  0.67730000  1.00000000  1
  C  C389  1  0.48940000  0.32270000  0.32270000  1
  C  C390  1  0.38250000  0.61150000  0.22900000  1
  C  C391  1  0.77100000  0.38850000  0.61750000  1
  C  C392  1  0.62660000  0.68280000  0.47980000  1
  C  C393  1  0.94380000  0.31720000  0.79700000  1
  C  C394  1  0.20300000  0.68280000  0.05620000  1
  C  C395  1  0.52020000  0.31720000  0.37340000  1
  C  C396  1  0.40310000  0.67860000  0.27550000  1
  C  C397  1  0.72450000  0.32140000  0.59690000  1
  C  C398  1  0.46820000  0.76310000  0.37370000  1
  C  C399  1  0.38940000  0.76310000  0.29490000  1
  C  C400  1  0.70510000  0.23690000  0.61060000  1
  C  C401  1  0.62630000  0.23690000  0.53180000  1
  C  C402  1  0.43840000  0.79450000  0.35610000  1
  C  C403  1  0.64390000  0.20550000  0.56160000  1
  C  C404  1  0.37340000  0.52020000  0.31720000  1
  C  C405  1  0.20300000  0.52020000  0.14680000  1
  C  C406  1  0.85320000  0.47980000  0.79700000  1
  C  C407  1  0.68280000  0.47980000  0.62660000  1
  N  N408  1  0.36100000  0.57870000  0.41590000  1
  N  N409  1  0.16280000  0.57870000  0.21770000  1
  N  N410  1  0.78230000  0.42130000  0.83720000  1
  N  N411  1  0.58410000  0.42130000  0.63900000  1
  N  N412  1  0.33270000  0.70400000  0.44990000  1
  N  N413  1  0.25410000  0.70400000  0.37130000  1
  N  N414  1  0.62870000  0.29600000  0.74590000  1
  N  N415  1  0.55010000  0.29600000  0.66730000  1
  N  N416  1  0.42130000  0.63900000  0.58410000  1
  N  N417  1  0.78230000  0.36100000  0.94510000  1
  N  N418  1  0.05490000  0.63900000  0.21770000  1
  N  N419  1  0.41590000  0.36100000  0.57870000  1
  N  N420  1  0.36100000  0.41590000  0.57870000  1
  N  N421  1  0.42130000  0.58410000  0.63900000  1
  N  N422  1  0.83720000  0.41590000  0.05490000  1
  N  N423  1  0.94510000  0.58410000  0.16280000  1
  N  N424  1  0.29600000  0.66730000  0.55010000  1
  N  N425  1  0.11720000  0.66730000  0.37130000  1
  N  N426  1  0.62870000  0.33270000  0.88280000  1
  N  N427  1  0.44990000  0.33270000  0.70400000  1
  N  N428  1  0.33270000  0.88280000  0.62870000  1
  N  N429  1  0.25410000  0.88280000  0.55010000  1
  N  N430  1  0.44990000  0.11720000  0.74590000  1
  N  N431  1  0.37130000  0.11720000  0.66730000  1
  N  N432  1  0.29600000  0.74590000  0.62870000  1
  N  N433  1  0.11720000  0.74590000  0.44990000  1
  N  N434  1  0.55010000  0.25410000  0.88280000  1
  N  N435  1  0.37130000  0.25410000  0.70400000  1
  N  N436  1  0.42130000  0.83720000  0.78230000  1
  N  N437  1  0.58410000  0.16280000  0.94510000  1
  N  N438  1  0.05490000  0.83720000  0.41590000  1
  N  N439  1  0.21770000  0.16280000  0.57870000  1
  N  N440  1  0.33270000  0.44990000  0.70400000  1
  N  N441  1  0.29600000  0.55010000  0.66730000  1
  N  N442  1  0.88280000  0.55010000  0.25410000  1
  N  N443  1  0.74590000  0.44990000  0.11720000  1
  N  N444  1  0.16280000  0.21770000  0.57870000  1
  N  N445  1  0.42130000  0.78230000  0.83720000  1
  N  N446  1  0.63900000  0.21770000  0.05490000  1
  N  N447  1  0.94510000  0.78230000  0.36100000  1
  N  N448  1  0.36100000  0.94510000  0.78230000  1
  N  N449  1  0.41590000  0.05490000  0.83720000  1
  N  N450  1  0.16280000  0.94510000  0.58410000  1
  N  N451  1  0.21770000  0.05490000  0.63900000  1
  N  N452  1  0.25410000  0.37130000  0.70400000  1
  N  N453  1  0.29600000  0.62870000  0.74590000  1
  N  N454  1  0.66730000  0.37130000  0.11720000  1
  N  N455  1  0.88280000  0.62870000  0.33270000  1
  N  N456  1  0.11720000  0.37130000  0.66730000  1
  N  N457  1  0.33270000  0.62870000  0.88280000  1
  N  N458  1  0.70400000  0.37130000  0.25410000  1
  N  N459  1  0.74590000  0.62870000  0.29600000  1
  N  N460  1  0.78230000  0.94510000  0.36100000  1
  N  N461  1  0.83720000  0.05490000  0.41590000  1
  N  N462  1  0.58410000  0.94510000  0.16280000  1
  N  N463  1  0.63900000  0.05490000  0.21770000  1
  N  N464  1  0.05490000  0.21770000  0.63900000  1
  N  N465  1  0.36100000  0.78230000  0.94510000  1
  N  N466  1  0.57870000  0.21770000  0.16280000  1
  N  N467  1  0.83720000  0.78230000  0.42130000  1
  N  N468  1  0.25410000  0.55010000  0.88280000  1
  N  N469  1  0.11720000  0.44990000  0.74590000  1
  N  N470  1  0.70400000  0.44990000  0.33270000  1
  N  N471  1  0.66730000  0.55010000  0.29600000  1
  N  N472  1  0.78230000  0.83720000  0.42130000  1
  N  N473  1  0.94510000  0.16280000  0.58410000  1
  N  N474  1  0.41590000  0.83720000  0.05490000  1
  N  N475  1  0.57870000  0.16280000  0.21770000  1
  N  N476  1  0.62870000  0.74590000  0.29600000  1
  N  N477  1  0.44990000  0.74590000  0.11720000  1
  N  N478  1  0.88280000  0.25410000  0.55010000  1
  N  N479  1  0.70400000  0.25410000  0.37130000  1
  N  N480  1  0.62870000  0.88280000  0.33270000  1
  N  N481  1  0.55010000  0.88280000  0.25410000  1
  N  N482  1  0.74590000  0.11720000  0.44990000  1
  N  N483  1  0.66730000  0.11720000  0.37130000  1
  N  N484  1  0.55010000  0.66730000  0.29600000  1
  N  N485  1  0.37130000  0.66730000  0.11720000  1
  N  N486  1  0.88280000  0.33270000  0.62870000  1
  N  N487  1  0.70400000  0.33270000  0.44990000  1
  N  N488  1  0.05490000  0.41590000  0.83720000  1
  N  N489  1  0.16280000  0.58410000  0.94510000  1
  N  N490  1  0.57870000  0.41590000  0.36100000  1
  N  N491  1  0.63900000  0.58410000  0.42130000  1
  N  N492  1  0.58410000  0.63900000  0.42130000  1
  N  N493  1  0.94510000  0.36100000  0.78230000  1
  N  N494  1  0.21770000  0.63900000  0.05490000  1
  N  N495  1  0.57870000  0.36100000  0.41590000  1
  N  N496  1  0.44990000  0.70400000  0.33270000  1
  N  N497  1  0.37130000  0.70400000  0.25410000  1
  N  N498  1  0.74590000  0.29600000  0.62870000  1
  N  N499  1  0.66730000  0.29600000  0.55010000  1
  N  N500  1  0.41590000  0.57870000  0.36100000  1
  N  N501  1  0.21770000  0.57870000  0.16280000  1
  N  N502  1  0.83720000  0.42130000  0.78230000  1
  N  N503  1  0.63900000  0.42130000  0.58410000  1
  O  O504  1  0.45273000  0.69731000  0.50472000  1
  O  O505  1  0.19259000  0.69731000  0.24458000  1
  O  O506  1  0.75542000  0.30269000  0.80741000  1
  O  O507  1  0.49528000  0.30269000  0.54727000  1
  O  O508  1  0.24844000  0.58656000  0.41208000  1
  O  O509  1  0.17448000  0.58656000  0.33812000  1
  O  O510  1  0.66188000  0.41344000  0.82552000  1
  O  O511  1  0.58792000  0.41344000  0.75156000  1
  O  O512  1  0.41344000  0.75156000  0.58792000  1
  O  O513  1  0.66188000  0.24844000  0.83636000  1
  O  O514  1  0.16364000  0.75156000  0.33812000  1
  O  O515  1  0.41208000  0.24844000  0.58656000  1
  O  O516  1  0.30269000  0.54727000  0.49528000  1
  O  O517  1  0.05199000  0.54727000  0.24458000  1
  O  O518  1  0.75542000  0.45273000  0.94801000  1
  O  O519  1  0.50472000  0.45273000  0.69731000  1
  O  O520  1  0.45273000  0.50472000  0.69731000  1
  O  O521  1  0.30269000  0.49528000  0.54727000  1
  O  O522  1  0.94801000  0.49528000  0.19259000  1
  O  O523  1  0.80741000  0.50472000  0.05199000  1
  O  O524  1  0.41344000  0.82552000  0.66188000  1
  O  O525  1  0.58792000  0.17448000  0.83636000  1
  O  O526  1  0.16364000  0.82552000  0.41208000  1
  O  O527  1  0.33812000  0.17448000  0.58656000  1
  O  O528  1  0.45273000  0.94801000  0.75542000  1
  O  O529  1  0.50472000  0.05199000  0.80741000  1
  O  O530  1  0.19259000  0.94801000  0.49528000  1
  O  O531  1  0.24458000  0.05199000  0.54727000  1
  O  O532  1  0.24844000  0.41208000  0.58656000  1
  O  O533  1  0.41344000  0.58792000  0.75156000  1
  O  O534  1  0.82552000  0.41208000  0.16364000  1
  O  O535  1  0.83636000  0.58792000  0.17448000  1
  O  O536  1  0.17448000  0.33812000  0.58656000  1
  O  O537  1  0.41344000  0.66188000  0.82552000  1
  O  O538  1  0.75156000  0.33812000  0.16364000  1
  O  O539  1  0.83636000  0.66188000  0.24844000  1
  O  O540  1  0.24844000  0.83636000  0.66188000  1
  O  O541  1  0.17448000  0.83636000  0.58792000  1
  O  O542  1  0.41208000  0.16364000  0.82552000  1
  O  O543  1  0.33812000  0.16364000  0.75156000  1
  O  O544  1  0.30269000  0.80741000  0.75542000  1
  O  O545  1  0.49528000  0.19259000  0.94801000  1
  O  O546  1  0.05199000  0.80741000  0.50472000  1
  O  O547  1  0.24458000  0.19259000  0.69731000  1
  O  O548  1  0.05199000  0.24458000  0.54727000  1
  O  O549  1  0.45273000  0.75542000  0.94801000  1
  O  O550  1  0.69731000  0.24458000  0.19259000  1
  O  O551  1  0.80741000  0.75542000  0.30269000  1
  O  O552  1  0.19259000  0.24458000  0.69731000  1
  O  O553  1  0.30269000  0.75542000  0.80741000  1
  O  O554  1  0.54727000  0.24458000  0.05199000  1
  O  O555  1  0.94801000  0.75542000  0.45273000  1
  O  O556  1  0.75542000  0.80741000  0.30269000  1
  O  O557  1  0.94801000  0.19259000  0.49528000  1
  O  O558  1  0.50472000  0.80741000  0.05199000  1
  O  O559  1  0.69731000  0.19259000  0.24458000  1
  O  O560  1  0.66188000  0.83636000  0.24844000  1
  O  O561  1  0.58792000  0.83636000  0.17448000  1
  O  O562  1  0.82552000  0.16364000  0.41208000  1
  O  O563  1  0.75156000  0.16364000  0.33812000  1
  O  O564  1  0.16364000  0.33812000  0.75156000  1
  O  O565  1  0.24844000  0.66188000  0.83636000  1
  O  O566  1  0.58656000  0.33812000  0.17448000  1
  O  O567  1  0.82552000  0.66188000  0.41344000  1
  O  O568  1  0.16364000  0.41208000  0.82552000  1
  O  O569  1  0.17448000  0.58792000  0.83636000  1
  O  O570  1  0.58656000  0.41208000  0.24844000  1
  O  O571  1  0.75156000  0.58792000  0.41344000  1
  O  O572  1  0.75542000  0.94801000  0.45273000  1
  O  O573  1  0.80741000  0.05199000  0.50472000  1
  O  O574  1  0.49528000  0.94801000  0.19259000  1
  O  O575  1  0.54727000  0.05199000  0.24458000  1
  O  O576  1  0.66188000  0.82552000  0.41344000  1
  O  O577  1  0.83636000  0.17448000  0.58792000  1
  O  O578  1  0.41208000  0.82552000  0.16364000  1
  O  O579  1  0.58656000  0.17448000  0.33812000  1
  O  O580  1  0.19259000  0.49528000  0.94801000  1
  O  O581  1  0.05199000  0.50472000  0.80741000  1
  O  O582  1  0.69731000  0.50472000  0.45273000  1
  O  O583  1  0.54727000  0.49528000  0.30269000  1
  O  O584  1  0.49528000  0.54727000  0.30269000  1
  O  O585  1  0.24458000  0.54727000  0.05199000  1
  O  O586  1  0.94801000  0.45273000  0.75542000  1
  O  O587  1  0.69731000  0.45273000  0.50472000  1
  O  O588  1  0.58792000  0.75156000  0.41344000  1
  O  O589  1  0.83636000  0.24844000  0.66188000  1
  O  O590  1  0.33812000  0.75156000  0.16364000  1
  O  O591  1  0.58656000  0.24844000  0.41208000  1
  O  O592  1  0.41208000  0.58656000  0.24844000  1
  O  O593  1  0.33812000  0.58656000  0.17448000  1
  O  O594  1  0.82552000  0.41344000  0.66188000  1
  O  O595  1  0.75156000  0.41344000  0.58792000  1
  O  O596  1  0.50472000  0.69731000  0.45273000  1
  O  O597  1  0.24458000  0.69731000  0.19259000  1
  O  O598  1  0.80741000  0.30269000  0.75542000  1
  O  O599  1  0.54727000  0.30269000  0.49528000  1
