# generated using pymatgen
data_ZnH13C20(NO2)2
_symmetry_space_group_name_H-M   'P 1'
_cell_length_a   6.88900000
_cell_length_b   11.60600000
_cell_length_c   23.85100000
_cell_angle_alpha   90.00000000
_cell_angle_beta   90.00000000
_cell_angle_gamma   96.08200000
_symmetry_Int_Tables_number   1
_chemical_formula_structural   ZnH13C20(NO2)2
_chemical_formula_sum   'Zn4 H52 C80 N8 O16'
_cell_volume   1896.24267073
_cell_formula_units_Z   4
loop_
 _symmetry_equiv_pos_site_id
 _symmetry_equiv_pos_as_xyz
  1  'x, y, z'
loop_
 _atom_site_type_symbol
 _atom_site_label
 _atom_site_symmetry_multiplicity
 _atom_site_fract_x
 _atom_site_fract_y
 _atom_site_fract_z
 _atom_site_occupancy
  Zn  Zn0  1  0.13126000  0.14180000  0.48184000  1
  Zn  Zn1  1  0.13126000  0.64180000  0.01815000  1
  Zn  Zn2  1  0.86874000  0.35820000  0.98184000  1
  Zn  Zn3  1  0.86874000  0.85820000  0.51815000  1
  H  H4  1  0.03220000  0.14340000  0.70100000  1
  H  H5  1  0.03220000  0.64340000  0.79900000  1
  H  H6  1  0.14960000  0.10820000  0.92680000  1
  H  H7  1  0.14960000  0.60820000  0.57320000  1
  H  H8  1  0.15680000  0.49220000  0.41340000  1
  H  H9  1  0.15680000  0.99220000  0.08660000  1
  H  H10  1  0.15930000  0.23680000  0.12730000  1
  H  H11  1  0.15930000  0.73680000  0.37270000  1
  H  H12  1  0.16120000  0.31430000  0.27630000  1
  H  H13  1  0.16120000  0.81430000  0.22370000  1
  H  H14  1  0.22530000  0.31970000  0.57720000  1
  H  H15  1  0.22530000  0.81970000  0.92280000  1
  H  H16  1  0.23930000  0.04700000  0.65490000  1
  H  H17  1  0.23930000  0.54700000  0.84510000  1
  H  H18  1  0.31620000  0.32900000  0.85830000  1
  H  H19  1  0.31620000  0.82900000  0.64170000  1
  H  H20  1  0.36140000  0.18850000  0.19940000  1
  H  H21  1  0.36140000  0.68850000  0.30060000  1
  H  H22  1  0.43010000  0.24140000  0.95000000  1
  H  H23  1  0.43010000  0.74140000  0.55000000  1
  H  H24  1  0.44180000  0.49990000  0.91770000  1
  H  H25  1  0.44180000  0.99990000  0.58230000  1
  H  H26  1  0.47860000  0.05360000  0.08550000  1
  H  H27  1  0.47860000  0.55360000  0.41450000  1
  H  H28  1  0.48920000  0.21110000  0.28290000  1
  H  H29  1  0.48920000  0.71110000  0.21710000  1
  H  H30  1  0.51080000  0.28890000  0.78290000  1
  H  H31  1  0.51080000  0.78890000  0.71710000  1
  H  H32  1  0.52140000  0.44640000  0.58550000  1
  H  H33  1  0.52140000  0.94640000  0.91450000  1
  H  H34  1  0.55820000  0.00010000  0.41770000  1
  H  H35  1  0.55820000  0.50010000  0.08230000  1
  H  H36  1  0.56990000  0.25860000  0.45000000  1
  H  H37  1  0.56990000  0.75860000  0.05000000  1
  H  H38  1  0.63860000  0.31150000  0.69940000  1
  H  H39  1  0.63860000  0.81150000  0.80060000  1
  H  H40  1  0.68380000  0.17100000  0.35830000  1
  H  H41  1  0.68380000  0.67100000  0.14170000  1
  H  H42  1  0.76070000  0.45300000  0.15490000  1
  H  H43  1  0.76070000  0.95300000  0.34510000  1
  H  H44  1  0.77470000  0.18030000  0.07720000  1
  H  H45  1  0.77470000  0.68030000  0.42280000  1
  H  H46  1  0.83880000  0.18570000  0.77630000  1
  H  H47  1  0.83880000  0.68570000  0.72370000  1
  H  H48  1  0.84070000  0.26320000  0.62730000  1
  H  H49  1  0.84070000  0.76320000  0.87270000  1
  H  H50  1  0.84320000  0.00780000  0.91340000  1
  H  H51  1  0.84320000  0.50780000  0.58660000  1
  H  H52  1  0.85040000  0.39180000  0.42680000  1
  H  H53  1  0.85040000  0.89180000  0.07320000  1
  H  H54  1  0.96780000  0.35660000  0.20100000  1
  H  H55  1  0.96780000  0.85660000  0.29900000  1
  C  C56  1  0.02420000  0.29330000  0.27788000  1
  C  C57  1  0.02420000  0.79330000  0.22212000  1
  C  C58  1  0.05700000  0.26210000  0.82503000  1
  C  C59  1  0.05700000  0.76210000  0.67497000  1
  C  C60  1  0.06740000  0.21050000  0.37415000  1
  C  C61  1  0.06740000  0.71050000  0.12585000  1
  C  C62  1  0.08890000  0.06410000  0.95676000  1
  C  C63  1  0.08890000  0.56410000  0.54324000  1
  C  C64  1  0.09150000  0.18140000  0.73293000  1
  C  C65  1  0.09150000  0.68140000  0.76707000  1
  C  C66  1  0.09380000  0.49570000  0.44870000  1
  C  C67  1  0.09380000  0.99570000  0.05130000  1
  C  C68  1  0.18570000  0.06100000  0.00803000  1
  C  C69  1  0.18570000  0.56100000  0.49197000  1
  C  C70  1  0.20080000  0.40890000  0.05350000  1
  C  C71  1  0.20080000  0.90890000  0.44650000  1
  C  C72  1  0.25770000  0.29150000  0.82617000  1
  C  C73  1  0.25770000  0.79150000  0.67383000  1
  C  C74  1  0.28120000  0.28170000  0.13306000  1
  C  C75  1  0.28120000  0.78170000  0.36694000  1
  C  C76  1  0.29300000  0.21040000  0.73363000  1
  C  C77  1  0.29300000  0.71040000  0.76637000  1
  C  C78  1  0.33340000  0.32380000  0.55226000  1
  C  C79  1  0.33340000  0.82380000  0.94774000  1
  C  C80  1  0.33590000  0.37480000  0.09845000  1
  C  C81  1  0.33590000  0.87480000  0.40155000  1
  C  C82  1  0.36240000  0.09100000  0.64976000  1
  C  C83  1  0.36240000  0.59100000  0.85024000  1
  C  C84  1  0.37400000  0.26700000  0.78130000  1
  C  C85  1  0.37400000  0.76700000  0.71870000  1
  C  C86  1  0.37900000  0.12470000  0.01470000  1
  C  C87  1  0.37900000  0.62470000  0.48530000  1
  C  C88  1  0.40160000  0.25300000  0.17605000  1
  C  C89  1  0.40160000  0.75300000  0.32395000  1
  C  C90  1  0.41850000  0.18280000  0.68570000  1
  C  C91  1  0.41850000  0.68280000  0.81430000  1
  C  C92  1  0.47790000  0.20910000  0.98320000  1
  C  C93  1  0.47790000  0.70910000  0.51680000  1
  C  C94  1  0.48310000  0.06260000  0.60654000  1
  C  C95  1  0.48310000  0.56260000  0.89346000  1
  C  C96  1  0.51690000  0.43740000  0.10654000  1
  C  C97  1  0.51690000  0.93740000  0.39346000  1
  C  C98  1  0.52210000  0.29090000  0.48320000  1
  C  C99  1  0.52210000  0.79090000  0.01680000  1
  C  C100  1  0.58150000  0.31720000  0.18570000  1
  C  C101  1  0.58150000  0.81720000  0.31430000  1
  C  C102  1  0.59840000  0.24700000  0.67605000  1
  C  C103  1  0.59840000  0.74700000  0.82395000  1
  C  C104  1  0.62100000  0.37530000  0.51470000  1
  C  C105  1  0.62100000  0.87530000  0.98530000  1
  C  C106  1  0.62600000  0.23300000  0.28130000  1
  C  C107  1  0.62600000  0.73300000  0.21870000  1
  C  C108  1  0.63760000  0.40900000  0.14976000  1
  C  C109  1  0.63760000  0.90900000  0.35024000  1
  C  C110  1  0.66410000  0.12520000  0.59845000  1
  C  C111  1  0.66410000  0.62520000  0.90155000  1
  C  C112  1  0.66666667  0.17620000  0.05226000  1
  C  C113  1  0.66666667  0.67620000  0.44774000  1
  C  C114  1  0.70700000  0.28960000  0.23363000  1
  C  C115  1  0.70700000  0.78960000  0.26637000  1
  C  C116  1  0.71880000  0.21830000  0.63306000  1
  C  C117  1  0.71880000  0.71830000  0.86694000  1
  C  C118  1  0.74230000  0.20850000  0.32617000  1
  C  C119  1  0.74230000  0.70850000  0.17383000  1
  C  C120  1  0.79920000  0.09110000  0.55350000  1
  C  C121  1  0.79920000  0.59110000  0.94650000  1
  C  C122  1  0.81430000  0.43900000  0.50803000  1
  C  C123  1  0.81430000  0.93900000  0.99197000  1
  C  C124  1  0.90620000  0.00430000  0.94870000  1
  C  C125  1  0.90620000  0.50430000  0.55130000  1
  C  C126  1  0.90850000  0.31860000  0.23293000  1
  C  C127  1  0.90850000  0.81860000  0.26707000  1
  C  C128  1  0.91110000  0.43590000  0.45676000  1
  C  C129  1  0.91110000  0.93590000  0.04324000  1
  C  C130  1  0.93260000  0.28950000  0.87415000  1
  C  C131  1  0.93260000  0.78950000  0.62585000  1
  C  C132  1  0.94300000  0.23790000  0.32503000  1
  C  C133  1  0.94300000  0.73790000  0.17497000  1
  C  C134  1  0.97580000  0.20670000  0.77788000  1
  C  C135  1  0.97580000  0.70670000  0.72212000  1
  N  N136  1  0.34200000  0.25950000  0.50686000  1
  N  N137  1  0.34200000  0.75950000  0.99314000  1
  N  N138  1  0.49690000  0.39540000  0.55843000  1
  N  N139  1  0.49690000  0.89540000  0.94157000  1
  N  N140  1  0.50310000  0.10460000  0.05843000  1
  N  N141  1  0.50310000  0.60460000  0.44157000  1
  N  N142  1  0.65800000  0.24050000  0.00686000  1
  N  N143  1  0.65800000  0.74050000  0.49314000  1
  O  O144  1  0.02390000  0.34180000  0.91492000  1
  O  O145  1  0.02390000  0.84180000  0.58508000  1
  O  O146  1  0.04110000  0.34630000  0.04723000  1
  O  O147  1  0.04110000  0.84630000  0.45277000  1
  O  O148  1  0.24660000  0.23850000  0.37321000  1
  O  O149  1  0.24660000  0.73850000  0.12679000  1
  O  O150  1  0.25270000  0.49862000  0.02499000  1
  O  O151  1  0.25270000  0.99862000  0.47501000  1
  O  O152  1  0.74730000  0.00138000  0.52499000  1
  O  O153  1  0.74730000  0.50138000  0.97501000  1
  O  O154  1  0.75340000  0.26150000  0.87321000  1
  O  O155  1  0.75340000  0.76150000  0.62679000  1
  O  O156  1  0.95890000  0.15370000  0.54723000  1
  O  O157  1  0.95890000  0.65370000  0.95277000  1
  O  O158  1  0.97610000  0.15820000  0.41492000  1
  O  O159  1  0.97610000  0.65820000  0.08508000  1
