# generated using pymatgen
data_EuH3C9NO7
_symmetry_space_group_name_H-M   'P 1'
_cell_length_a   13.01770000
_cell_length_b   13.01770000
_cell_length_c   15.00200000
_cell_angle_alpha   83.69560000
_cell_angle_beta   83.69560000
_cell_angle_gamma   61.73200000
_symmetry_Int_Tables_number   1
_chemical_formula_structural   EuH3C9NO7
_chemical_formula_sum   'Eu4 H12 C36 N4 O28'
_cell_volume   2220.66561976
_cell_formula_units_Z   4
loop_
 _symmetry_equiv_pos_site_id
 _symmetry_equiv_pos_as_xyz
  1  'x, y, z'
loop_
 _atom_site_type_symbol
 _atom_site_label
 _atom_site_symmetry_multiplicity
 _atom_site_fract_x
 _atom_site_fract_y
 _atom_site_fract_z
 _atom_site_occupancy
  Eu  Eu0  1  0.34902000  0.98978000  0.52719000  1
  Eu  Eu1  1  0.01022000  0.65098000  0.97281000  1
  Eu  Eu2  1  0.98978000  0.34902000  0.02719000  1
  Eu  Eu3  1  0.65098000  0.01022000  0.47281000  1
  H  H4  1  0.73530000  0.78090000  0.23550000  1
  H  H5  1  0.78090000  0.73530000  0.73550000  1
  H  H6  1  0.47650000  0.70910000  0.33830000  1
  H  H7  1  0.52040000  0.70280000  0.64170000  1
  H  H8  1  0.29090000  0.52350000  0.16170000  1
  H  H9  1  0.70280000  0.52040000  0.14170000  1
  H  H10  1  0.29720000  0.47960000  0.85830000  1
  H  H11  1  0.70910000  0.47650000  0.83830000  1
  H  H12  1  0.47960000  0.29720000  0.35830000  1
  H  H13  1  0.52350000  0.29090000  0.66170000  1
  H  H14  1  0.21910000  0.26470000  0.26450000  1
  H  H15  1  0.26470000  0.21910000  0.76450000  1
  C  C16  1  0.56260000  0.85300000  0.36240000  1
  C  C17  1  0.63750000  0.82970000  0.60640000  1
  C  C18  1  0.60180000  0.75760000  0.29820000  1
  C  C19  1  0.69610000  0.73670000  0.23650000  1
  C  C20  1  0.65020000  0.73260000  0.67600000  1
  C  C21  1  0.73670000  0.69610000  0.73650000  1
  C  C22  1  0.54240000  0.69240000  0.29940000  1
  C  C23  1  0.58060000  0.67680000  0.68010000  1
  C  C24  1  0.73260000  0.65020000  0.17600000  1
  C  C25  1  0.82970000  0.63750000  0.10640000  1
  C  C26  1  0.75760000  0.60180000  0.79820000  1
  C  C27  1  0.58200000  0.60180000  0.24190000  1
  C  C28  1  0.60180000  0.58200000  0.74190000  1
  C  C29  1  0.67680000  0.58060000  0.18010000  1
  C  C30  1  0.85300000  0.56260000  0.86240000  1
  C  C31  1  0.69240000  0.54240000  0.79940000  1
  C  C32  1  0.52080000  0.53340000  0.24720000  1
  C  C33  1  0.53340000  0.52080000  0.74720000  1
  C  C34  1  0.46660000  0.47920000  0.25280000  1
  C  C35  1  0.47920000  0.46660000  0.75280000  1
  C  C36  1  0.30760000  0.45760000  0.20060000  1
  C  C37  1  0.14700000  0.43740000  0.13760000  1
  C  C38  1  0.32320000  0.41940000  0.81990000  1
  C  C39  1  0.39820000  0.41800000  0.25810000  1
  C  C40  1  0.41800000  0.39820000  0.75810000  1
  C  C41  1  0.24240000  0.39820000  0.20180000  1
  C  C42  1  0.17030000  0.36250000  0.89360000  1
  C  C43  1  0.26740000  0.34980000  0.82400000  1
  C  C44  1  0.41940000  0.32320000  0.31990000  1
  C  C45  1  0.45760000  0.30760000  0.70060000  1
  C  C46  1  0.26330000  0.30390000  0.26350000  1
  C  C47  1  0.34980000  0.26740000  0.32400000  1
  C  C48  1  0.30390000  0.26330000  0.76350000  1
  C  C49  1  0.39820000  0.24240000  0.70180000  1
  C  C50  1  0.36250000  0.17030000  0.39360000  1
  C  C51  1  0.43740000  0.14700000  0.63760000  1
  N  N52  1  0.27490000  0.82870000  0.46990000  1
  N  N53  1  0.17130000  0.72510000  0.03010000  1
  N  N54  1  0.82870000  0.27490000  0.96990000  1
  N  N55  1  0.72510000  0.17130000  0.53010000  1
  O  O56  1  0.21870000  0.93850000  0.45340000  1
  O  O57  1  0.45860000  0.89360000  0.39680000  1
  O  O58  1  0.63560000  0.88300000  0.37860000  1
  O  O59  1  0.54460000  0.88260000  0.56540000  1
  O  O60  1  0.71880000  0.85440000  0.59140000  1
  O  O61  1  0.35310000  0.79410000  0.52320000  1
  O  O62  1  0.06150000  0.78130000  0.04660000  1
  O  O63  1  0.25910000  0.75970000  0.43200000  1
  O  O64  1  0.24030000  0.74090000  0.06800000  1
  O  O65  1  0.85440000  0.71880000  0.09140000  1
  O  O66  1  0.20590000  0.64690000  0.97680000  1
  O  O67  1  0.88300000  0.63560000  0.87860000  1
  O  O68  1  0.88260000  0.54460000  0.06540000  1
  O  O69  1  0.10640000  0.54140000  0.10320000  1
  O  O70  1  0.89360000  0.45860000  0.89680000  1
  O  O71  1  0.11740000  0.45540000  0.93460000  1
  O  O72  1  0.11700000  0.36440000  0.12140000  1
  O  O73  1  0.79410000  0.35310000  0.02320000  1
  O  O74  1  0.14560000  0.28120000  0.90860000  1
  O  O75  1  0.75970000  0.25910000  0.93200000  1
  O  O76  1  0.74090000  0.24030000  0.56800000  1
  O  O77  1  0.93850000  0.21870000  0.95340000  1
  O  O78  1  0.64690000  0.20590000  0.47680000  1
  O  O79  1  0.28120000  0.14560000  0.40860000  1
  O  O80  1  0.45540000  0.11740000  0.43460000  1
  O  O81  1  0.36440000  0.11700000  0.62140000  1
  O  O82  1  0.54140000  0.10640000  0.60320000  1
  O  O83  1  0.78130000  0.06150000  0.54660000  1
