# generated using pymatgen
data_ZnH11C13(NO2)2
_symmetry_space_group_name_H-M   'P 1'
_cell_length_a   10.93570000
_cell_length_b   10.93570000
_cell_length_c   12.45490000
_cell_angle_alpha   101.57200000
_cell_angle_beta   101.57200000
_cell_angle_gamma   99.22710000
_symmetry_Int_Tables_number   1
_chemical_formula_structural   ZnH11C13(NO2)2
_chemical_formula_sum   'Zn4 H44 C52 N8 O16'
_cell_volume   1397.96923558
_cell_formula_units_Z   4
loop_
 _symmetry_equiv_pos_site_id
 _symmetry_equiv_pos_as_xyz
  1  'x, y, z'
loop_
 _atom_site_type_symbol
 _atom_site_label
 _atom_site_symmetry_multiplicity
 _atom_site_fract_x
 _atom_site_fract_y
 _atom_site_fract_z
 _atom_site_occupancy
  Zn  Zn0  1  0.34081000  0.73604000  0.37630000  1
  Zn  Zn1  1  0.26396000  0.65919000  0.12370000  1
  Zn  Zn2  1  0.73604000  0.34081000  0.87630000  1
  Zn  Zn3  1  0.65919000  0.26396000  0.62370000  1
  H  H4  1  0.26700000  0.98300000  0.83800000  1
  H  H5  1  0.75520000  0.96280000  0.91200000  1
  H  H6  1  0.76300000  0.94700000  0.27400000  1
  H  H7  1  0.35970000  0.94630000  0.57710000  1
  H  H8  1  0.60900000  0.93300000  0.20100000  1
  H  H9  1  0.62420000  0.84140000  0.57800000  1
  H  H10  1  0.76110000  0.77690000  0.42300000  1
  H  H11  1  0.94700000  0.76300000  0.77400000  1
  H  H12  1  0.77690000  0.76110000  0.92300000  1
  H  H13  1  0.96280000  0.75520000  0.41200000  1
  H  H14  1  0.48520000  0.74680000  0.88200000  1
  H  H15  1  0.48210000  0.74590000  0.99400000  1
  H  H16  1  0.01700000  0.73300000  0.66200000  1
  H  H17  1  0.05370000  0.64030000  0.92290000  1
  H  H18  1  0.62530000  0.63470000  0.58900000  1
  H  H19  1  0.46870000  0.63070000  0.91400000  1
  H  H20  1  0.63470000  0.62530000  0.08900000  1
  H  H21  1  0.84140000  0.62420000  0.07800000  1
  H  H22  1  0.93300000  0.60900000  0.70100000  1
  H  H23  1  0.36930000  0.53130000  0.58600000  1
  H  H24  1  0.25410000  0.51790000  0.50600000  1
  H  H25  1  0.25320000  0.51480000  0.61800000  1
  H  H26  1  0.74680000  0.48520000  0.38200000  1
  H  H27  1  0.74590000  0.48210000  0.49400000  1
  H  H28  1  0.63070000  0.46870000  0.41400000  1
  H  H29  1  0.06700000  0.39100000  0.29900000  1
  H  H30  1  0.15860000  0.37580000  0.92200000  1
  H  H31  1  0.36530000  0.37470000  0.91100000  1
  H  H32  1  0.53130000  0.36930000  0.08600000  1
  H  H33  1  0.37470000  0.36530000  0.41100000  1
  H  H34  1  0.94630000  0.35970000  0.07710000  1
  H  H35  1  0.98300000  0.26700000  0.33800000  1
  H  H36  1  0.51790000  0.25410000  0.00600000  1
  H  H37  1  0.51480000  0.25320000  0.11800000  1
  H  H38  1  0.03720000  0.24480000  0.58800000  1
  H  H39  1  0.22310000  0.23890000  0.07700000  1
  H  H40  1  0.05300000  0.23700000  0.22600000  1
  H  H41  1  0.23890000  0.22310000  0.57700000  1
  H  H42  1  0.37580000  0.15860000  0.42200000  1
  H  H43  1  0.39100000  0.06700000  0.79900000  1
  H  H44  1  0.64030000  0.05370000  0.42290000  1
  H  H45  1  0.23700000  0.05300000  0.72600000  1
  H  H46  1  0.24480000  0.03720000  0.08800000  1
  H  H47  1  0.73300000  0.01700000  0.16200000  1
  C  C48  1  0.69970000  0.99370000  0.23050000  1
  C  C49  1  0.31804000  0.93950000  0.26770000  1
  C  C50  1  0.68919000  0.92601000  0.74090000  1
  C  C51  1  0.73280000  0.90120000  0.84520000  1
  C  C52  1  0.30890000  0.88750000  0.69230000  1
  C  C53  1  0.65214000  0.82606000  0.64500000  1
  C  C54  1  0.73830000  0.77690000  0.85270000  1
  C  C55  1  0.28249000  0.76487000  0.70451000  1
  C  C56  1  0.77690000  0.73830000  0.35270000  1
  C  C57  1  0.90120000  0.73280000  0.34520000  1
  C  C58  1  0.23513000  0.71751000  0.79549000  1
  C  C59  1  0.54218000  0.70842000  0.26450000  1
  C  C60  1  0.45150000  0.70550000  0.92420000  1
  C  C61  1  0.65677000  0.70203000  0.65350000  1
  C  C62  1  0.67704000  0.70076000  0.25740000  1
  C  C63  1  0.99370000  0.69970000  0.73050000  1
  C  C64  1  0.31110000  0.69410000  0.89460000  1
  C  C65  1  0.11250000  0.69110000  0.80770000  1
  C  C66  1  0.92601000  0.68919000  0.24090000  1
  C  C67  1  0.30590000  0.68890000  0.60540000  1
  C  C68  1  0.06050000  0.68196000  0.23230000  1
  C  C69  1  0.70076000  0.67704000  0.75740000  1
  C  C70  1  0.70203000  0.65677000  0.15350000  1
  C  C71  1  0.82606000  0.65214000  0.14500000  1
  C  C72  1  0.29450000  0.54850000  0.57580000  1
  C  C73  1  0.70842000  0.54218000  0.76450000  1
  C  C74  1  0.29158000  0.45782000  0.23550000  1
  C  C75  1  0.70550000  0.45150000  0.42420000  1
  C  C76  1  0.17394000  0.34786000  0.85500000  1
  C  C77  1  0.29797000  0.34323000  0.84650000  1
  C  C78  1  0.29924000  0.32296000  0.24260000  1
  C  C79  1  0.93950000  0.31804000  0.76770000  1
  C  C80  1  0.69410000  0.31110000  0.39460000  1
  C  C81  1  0.07399000  0.31081000  0.75910000  1
  C  C82  1  0.88750000  0.30890000  0.19230000  1
  C  C83  1  0.68890000  0.30590000  0.10540000  1
  C  C84  1  0.00630000  0.30030000  0.26950000  1
  C  C85  1  0.32296000  0.29924000  0.74260000  1
  C  C86  1  0.34323000  0.29797000  0.34650000  1
  C  C87  1  0.54850000  0.29450000  0.07580000  1
  C  C88  1  0.45782000  0.29158000  0.73550000  1
  C  C89  1  0.76487000  0.28249000  0.20451000  1
  C  C90  1  0.09880000  0.26720000  0.65480000  1
  C  C91  1  0.22310000  0.26170000  0.64730000  1
  C  C92  1  0.71751000  0.23513000  0.29549000  1
  C  C93  1  0.26170000  0.22310000  0.14730000  1
  C  C94  1  0.34786000  0.17394000  0.35500000  1
  C  C95  1  0.69110000  0.11250000  0.30770000  1
  C  C96  1  0.26720000  0.09880000  0.15480000  1
  C  C97  1  0.31081000  0.07399000  0.25910000  1
  C  C98  1  0.68196000  0.06050000  0.73230000  1
  C  C99  1  0.30030000  0.00630000  0.76950000  1
  N  N100  1  0.34120000  0.88720000  0.59760000  1
  N  N101  1  0.33712000  0.76970000  0.54133000  1
  N  N102  1  0.23030000  0.66288000  0.95867000  1
  N  N103  1  0.11280000  0.65880000  0.90240000  1
  N  N104  1  0.88720000  0.34120000  0.09760000  1
  N  N105  1  0.76970000  0.33712000  0.04133000  1
  N  N106  1  0.66288000  0.23030000  0.45867000  1
  N  N107  1  0.65880000  0.11280000  0.40240000  1
  O  O108  1  0.35671000  0.92239000  0.36565000  1
  O  O109  1  0.28788000  0.85424000  0.17847000  1
  O  O110  1  0.52481000  0.74975000  0.36170000  1
  O  O111  1  0.14576000  0.71212000  0.32153000  1
  O  O112  1  0.45766000  0.67578000  0.17458000  1
  O  O113  1  0.07761000  0.64329000  0.13435000  1
  O  O114  1  0.32422000  0.54234000  0.32542000  1
  O  O115  1  0.74975000  0.52481000  0.86170000  1
  O  O116  1  0.25025000  0.47519000  0.13830000  1
  O  O117  1  0.67578000  0.45766000  0.67458000  1
  O  O118  1  0.92239000  0.35671000  0.86565000  1
  O  O119  1  0.54234000  0.32422000  0.82542000  1
  O  O120  1  0.85424000  0.28788000  0.67847000  1
  O  O121  1  0.47519000  0.25025000  0.63830000  1
  O  O122  1  0.71212000  0.14576000  0.82153000  1
  O  O123  1  0.64329000  0.07761000  0.63435000  1
