# generated using pymatgen
data_Zr3H33(C39O8)2
_symmetry_space_group_name_H-M   'P 1'
_cell_length_a   38.12811527
_cell_length_b   38.12770000
_cell_length_c   38.12770000
_cell_angle_alpha   109.47100000
_cell_angle_beta   109.47144127
_cell_angle_gamma   109.47144127
_symmetry_Int_Tables_number   1
_chemical_formula_structural   Zr3H33(C39O8)2
_chemical_formula_sum   'Zr24 H264 C624 O128'
_cell_volume   42668.11730766
_cell_formula_units_Z   8
loop_
 _symmetry_equiv_pos_site_id
 _symmetry_equiv_pos_as_xyz
  1  'x, y, z'
loop_
 _atom_site_type_symbol
 _atom_site_label
 _atom_site_symmetry_multiplicity
 _atom_site_fract_x
 _atom_site_fract_y
 _atom_site_fract_z
 _atom_site_occupancy
  Zr  Zr0  1  0.44121000  0.49995000  0.44628000  1
  Zr  Zr1  1  0.05367000  0.49995000  0.05874000  1
  Zr  Zr2  1  0.94126000  0.44121000  0.99493000  1
  Zr  Zr3  1  0.44628000  0.44121000  0.49995000  1
  Zr  Zr4  1  0.50005000  0.55372000  0.55879000  1
  Zr  Zr5  1  0.99493000  0.55372000  0.05367000  1
  Zr  Zr6  1  0.55372000  0.05367000  0.99493000  1
  Zr  Zr7  1  0.05874000  0.05367000  0.49995000  1
  Zr  Zr8  1  0.50005000  0.94126000  0.94633000  1
  Zr  Zr9  1  0.99493000  0.94126000  0.44121000  1
  Zr  Zr10  1  0.94633000  0.00507000  0.44628000  1
  Zr  Zr11  1  0.55879000  0.00507000  0.05874000  1
  Zr  Zr12  1  0.44121000  0.99493000  0.94126000  1
  Zr  Zr13  1  0.05367000  0.99493000  0.55372000  1
  Zr  Zr14  1  0.00507000  0.05874000  0.55879000  1
  Zr  Zr15  1  0.49995000  0.05874000  0.05367000  1
  Zr  Zr16  1  0.94126000  0.94633000  0.50005000  1
  Zr  Zr17  1  0.44628000  0.94633000  0.00507000  1
  Zr  Zr18  1  0.00507000  0.44628000  0.94633000  1
  Zr  Zr19  1  0.49995000  0.44628000  0.44121000  1
  Zr  Zr20  1  0.55372000  0.55879000  0.50005000  1
  Zr  Zr21  1  0.05874000  0.55879000  0.00507000  1
  Zr  Zr22  1  0.94633000  0.50005000  0.94126000  1
  Zr  Zr23  1  0.55879000  0.50005000  0.55372000  1
  H  H24  1  0.83340000  0.22340000  0.88220000  1
  H  H25  1  0.34120000  0.22340000  0.39000000  1
  H  H26  1  0.77520000  0.10000000  0.82420000  1
  H  H27  1  0.27580000  0.10000000  0.32480000  1
  H  H28  1  0.80680000  0.43070000  0.85630000  1
  H  H29  1  0.57440000  0.43070000  0.62390000  1
  H  H30  1  0.86880000  0.29780000  0.92240000  1
  H  H31  1  0.37540000  0.29780000  0.42900000  1
  H  H32  1  0.86900000  0.56220000  0.92580000  1
  H  H33  1  0.63640000  0.56220000  0.69320000  1
  H  H34  1  0.56220000  0.69320000  0.63640000  1
  H  H35  1  0.05680000  0.69320000  0.13100000  1
  H  H36  1  0.29780000  0.42900000  0.37540000  1
  H  H37  1  0.05360000  0.42900000  0.13120000  1
  H  H38  1  0.59760000  0.76750000  0.67810000  1
  H  H39  1  0.08940000  0.76750000  0.16990000  1
  H  H40  1  0.36180000  0.56420000  0.44500000  1
  H  H41  1  0.11920000  0.56420000  0.20240000  1
  H  H42  1  0.83010000  0.59760000  0.91950000  1
  H  H43  1  0.67810000  0.59760000  0.76750000  1
  H  H44  1  0.73170000  0.40070000  0.82160000  1
  H  H45  1  0.57910000  0.40070000  0.66900000  1
  H  H46  1  0.72420000  0.04900000  0.82420000  1
  H  H47  1  0.22480000  0.04900000  0.32480000  1
  H  H48  1  0.64890000  0.89870000  0.75020000  1
  H  H49  1  0.14850000  0.89870000  0.24980000  1
  H  H50  1  0.22340000  0.39000000  0.34120000  1
  H  H51  1  0.04880000  0.39000000  0.16660000  1
  H  H52  1  0.79760000  0.36180000  0.91680000  1
  H  H53  1  0.44500000  0.36180000  0.56420000  1
  H  H54  1  0.32480000  0.60410000  0.45370000  1
  H  H55  1  0.15040000  0.60410000  0.27930000  1
  H  H56  1  0.30680000  0.36360000  0.43780000  1
  H  H57  1  0.92580000  0.36360000  0.05680000  1
  H  H58  1  0.57100000  0.62460000  0.70220000  1
  H  H59  1  0.92240000  0.62460000  0.05360000  1
  H  H60  1  0.60070000  0.33780000  0.73710000  1
  H  H61  1  0.43070000  0.62390000  0.57440000  1
  H  H62  1  0.04950000  0.62390000  0.19320000  1
  H  H63  1  0.75020000  0.64890000  0.89870000  1
  H  H64  1  0.72070000  0.32480000  0.87110000  1
  H  H65  1  0.45370000  0.32480000  0.60410000  1
  H  H66  1  0.61000000  0.65880000  0.77660000  1
  H  H67  1  0.88220000  0.65880000  0.04880000  1
  H  H68  1  0.23250000  0.32190000  0.40240000  1
  H  H69  1  0.91950000  0.32190000  0.08940000  1
  H  H70  1  0.10000000  0.32480000  0.27580000  1
  H  H71  1  0.04900000  0.32480000  0.22480000  1
  H  H72  1  0.40070000  0.66900000  0.57910000  1
  H  H73  1  0.08990000  0.66900000  0.26830000  1
  H  H74  1  0.26450000  0.66190000  0.45220000  1
  H  H75  1  0.20970000  0.66190000  0.39740000  1
  H  H76  1  0.37610000  0.42560000  0.56930000  1
  H  H77  1  0.85630000  0.42560000  0.04950000  1
  H  H78  1  0.43580000  0.55500000  0.63820000  1
  H  H79  1  0.91680000  0.55500000  0.11920000  1
  H  H80  1  0.60260000  0.26450000  0.81230000  1
  H  H81  1  0.45220000  0.26450000  0.66190000  1
  H  H82  1  0.65880000  0.04880000  0.88220000  1
  H  H83  1  0.16660000  0.04880000  0.39000000  1
  H  H84  1  0.67520000  0.72420000  0.90000000  1
  H  H85  1  0.82420000  0.72420000  0.04900000  1
  H  H86  1  0.59760000  0.91950000  0.83010000  1
  H  H87  1  0.08940000  0.91950000  0.32190000  1
  H  H88  1  0.10130000  0.24980000  0.35110000  1
  H  H89  1  0.89870000  0.24980000  0.14850000  1
  H  H90  1  0.33780000  0.73710000  0.60070000  1
  H  H91  1  0.13640000  0.73710000  0.39930000  1
  H  H92  1  0.54780000  0.20970000  0.81230000  1
  H  H93  1  0.39740000  0.20970000  0.66190000  1
  H  H94  1  0.33100000  0.42090000  0.59930000  1
  H  H95  1  0.82160000  0.42090000  0.08990000  1
  H  H96  1  0.67520000  0.77520000  0.95100000  1
  H  H97  1  0.82420000  0.77520000  0.10000000  1
  H  H98  1  0.39590000  0.54630000  0.67520000  1
  H  H99  1  0.87110000  0.54630000  0.15040000  1
  H  H100  1  0.62460000  0.05360000  0.92240000  1
  H  H101  1  0.13120000  0.05360000  0.42900000  1
  H  H102  1  0.56220000  0.92580000  0.86900000  1
  H  H103  1  0.05680000  0.92580000  0.36360000  1
  H  H104  1  0.08050000  0.16990000  0.40240000  1
  H  H105  1  0.76750000  0.16990000  0.08940000  1
  H  H106  1  0.95100000  0.17580000  0.27580000  1
  H  H107  1  0.90000000  0.17580000  0.22480000  1
  H  H108  1  0.54630000  0.15040000  0.87110000  1
  H  H109  1  0.27930000  0.15040000  0.60410000  1
  H  H110  1  0.40070000  0.82160000  0.73170000  1
  H  H111  1  0.08990000  0.82160000  0.42090000  1
  H  H112  1  0.39930000  0.13640000  0.73710000  1
  H  H113  1  0.26450000  0.81230000  0.60260000  1
  H  H114  1  0.20970000  0.81230000  0.54780000  1
  H  H115  1  0.61000000  0.83340000  0.95120000  1
  H  H116  1  0.88220000  0.83340000  0.22340000  1
  H  H117  1  0.75020000  0.85150000  0.10130000  1
  H  H118  1  0.55500000  0.11920000  0.91680000  1
  H  H119  1  0.20240000  0.11920000  0.56420000  1
  H  H120  1  0.07420000  0.13100000  0.43780000  1
  H  H121  1  0.69320000  0.13100000  0.05680000  1
  H  H122  1  0.57100000  0.86880000  0.94640000  1
  H  H123  1  0.92240000  0.86880000  0.29780000  1
  H  H124  1  0.43070000  0.85630000  0.80680000  1
  H  H125  1  0.04950000  0.85630000  0.42560000  1
  H  H126  1  0.95120000  0.11780000  0.34120000  1
  H  H127  1  0.77660000  0.11780000  0.16660000  1
  H  H128  1  0.32480000  0.87110000  0.72070000  1
  H  H129  1  0.15040000  0.87110000  0.54630000  1
  H  H130  1  0.33810000  0.54780000  0.73550000  1
  H  H131  1  0.81230000  0.54780000  0.20970000  1
  H  H132  1  0.26290000  0.39930000  0.66220000  1
  H  H133  1  0.73710000  0.39930000  0.13640000  1
  H  H134  1  0.42090000  0.08990000  0.82160000  1
  H  H135  1  0.26830000  0.08990000  0.66900000  1
  H  H136  1  0.83010000  0.91060000  0.23250000  1
  H  H137  1  0.67810000  0.91060000  0.08050000  1
  H  H138  1  0.17840000  0.26830000  0.59930000  1
  H  H139  1  0.66900000  0.26830000  0.08990000  1
  H  H140  1  0.14370000  0.19320000  0.56930000  1
  H  H141  1  0.62390000  0.19320000  0.04950000  1
  H  H142  1  0.94640000  0.07760000  0.37540000  1
  H  H143  1  0.70220000  0.07760000  0.13120000  1
  H  H144  1  0.42560000  0.04950000  0.85630000  1
  H  H145  1  0.19320000  0.04950000  0.62390000  1
  H  H146  1  0.36180000  0.91680000  0.79760000  1
  H  H147  1  0.11920000  0.91680000  0.55500000  1
  H  H148  1  0.86900000  0.94320000  0.30680000  1
  H  H149  1  0.63640000  0.94320000  0.07420000  1
  H  H150  1  0.43580000  0.79760000  0.88080000  1
  H  H151  1  0.91680000  0.79760000  0.36180000  1
  H  H152  1  0.33810000  0.60260000  0.79030000  1
  H  H153  1  0.81230000  0.60260000  0.26450000  1
  H  H154  1  0.39590000  0.72070000  0.84960000  1
  H  H155  1  0.87110000  0.72070000  0.32480000  1
  H  H156  1  0.12890000  0.27930000  0.67520000  1
  H  H157  1  0.60410000  0.27930000  0.15040000  1
  H  H158  1  0.18770000  0.39740000  0.73550000  1
  H  H159  1  0.66190000  0.39740000  0.20970000  1
  H  H160  1  0.08320000  0.20240000  0.63820000  1
  H  H161  1  0.56420000  0.20240000  0.11920000  1
  H  H162  1  0.36360000  0.05680000  0.92580000  1
  H  H163  1  0.13100000  0.05680000  0.69320000  1
  H  H164  1  0.88080000  0.08320000  0.44500000  1
  H  H165  1  0.63820000  0.08320000  0.20240000  1
  H  H166  1  0.80680000  0.95050000  0.37610000  1
  H  H167  1  0.57440000  0.95050000  0.14370000  1
  H  H168  1  0.29780000  0.92240000  0.86880000  1
  H  H169  1  0.05360000  0.92240000  0.62460000  1
  H  H170  1  0.37610000  0.80680000  0.95050000  1
  H  H171  1  0.85630000  0.80680000  0.43070000  1
  H  H172  1  0.33100000  0.73170000  0.91010000  1
  H  H173  1  0.82160000  0.73170000  0.40070000  1
  H  H174  1  0.32190000  0.08940000  0.91950000  1
  H  H175  1  0.16990000  0.08940000  0.76750000  1
  H  H176  1  0.73170000  0.91010000  0.33100000  1
  H  H177  1  0.57910000  0.91010000  0.17840000  1
  H  H178  1  0.26290000  0.60070000  0.86360000  1
  H  H179  1  0.73710000  0.60070000  0.33780000  1
  H  H180  1  0.18770000  0.45220000  0.79030000  1
  H  H181  1  0.66190000  0.45220000  0.26450000  1
  H  H182  1  0.84960000  0.12890000  0.45370000  1
  H  H183  1  0.67520000  0.12890000  0.27930000  1
  H  H184  1  0.22340000  0.88220000  0.83340000  1
  H  H185  1  0.04880000  0.88220000  0.65880000  1
  H  H186  1  0.95050000  0.14370000  0.57440000  1
  H  H187  1  0.56930000  0.14370000  0.19320000  1
  H  H188  1  0.07760000  0.13120000  0.70220000  1
  H  H189  1  0.42900000  0.13120000  0.05360000  1
  H  H190  1  0.30680000  0.86900000  0.94320000  1
  H  H191  1  0.92580000  0.86900000  0.56220000  1
  H  H192  1  0.79760000  0.88080000  0.43580000  1
  H  H193  1  0.44500000  0.88080000  0.08320000  1
  H  H194  1  0.24980000  0.14850000  0.89870000  1
  H  H195  1  0.11780000  0.16660000  0.77660000  1
  H  H196  1  0.39000000  0.16660000  0.04880000  1
  H  H197  1  0.79030000  0.18770000  0.45220000  1
  H  H198  1  0.73550000  0.18770000  0.39740000  1
  H  H199  1  0.60070000  0.86360000  0.26290000  1
  H  H200  1  0.91010000  0.17840000  0.57910000  1
  H  H201  1  0.59930000  0.17840000  0.26830000  1
  H  H202  1  0.72070000  0.84960000  0.39590000  1
  H  H203  1  0.45370000  0.84960000  0.12890000  1
  H  H204  1  0.10000000  0.82420000  0.77520000  1
  H  H205  1  0.04900000  0.82420000  0.72420000  1
  H  H206  1  0.23250000  0.83010000  0.91060000  1
  H  H207  1  0.91950000  0.83010000  0.59760000  1
  H  H208  1  0.94320000  0.07420000  0.63640000  1
  H  H209  1  0.43780000  0.07420000  0.13100000  1
  H  H210  1  0.86880000  0.94640000  0.57100000  1
  H  H211  1  0.37540000  0.94640000  0.07760000  1
  H  H212  1  0.12890000  0.45370000  0.84960000  1
  H  H213  1  0.60410000  0.45370000  0.32480000  1
  H  H214  1  0.17580000  0.22480000  0.90000000  1
  H  H215  1  0.32480000  0.22480000  0.04900000  1
  H  H216  1  0.17840000  0.57910000  0.91010000  1
  H  H217  1  0.66900000  0.57910000  0.40070000  1
  H  H218  1  0.60260000  0.79030000  0.33810000  1
  H  H219  1  0.45220000  0.79030000  0.18770000  1
  H  H220  1  0.86360000  0.26290000  0.60070000  1
  H  H221  1  0.66220000  0.26290000  0.39930000  1
  H  H222  1  0.10130000  0.75020000  0.85150000  1
  H  H223  1  0.89870000  0.75020000  0.64890000  1
  H  H224  1  0.91060000  0.08050000  0.67810000  1
  H  H225  1  0.40240000  0.08050000  0.16990000  1
  H  H226  1  0.17580000  0.27580000  0.95100000  1
  H  H227  1  0.32480000  0.27580000  0.10000000  1
  H  H228  1  0.83340000  0.95120000  0.61000000  1
  H  H229  1  0.34120000  0.95120000  0.11780000  1
  H  H230  1  0.54780000  0.73550000  0.33810000  1
  H  H231  1  0.39740000  0.73550000  0.18770000  1
  H  H232  1  0.08320000  0.44500000  0.88080000  1
  H  H233  1  0.56420000  0.44500000  0.36180000  1
  H  H234  1  0.14370000  0.57440000  0.95050000  1
  H  H235  1  0.62390000  0.57440000  0.43070000  1
  H  H236  1  0.79030000  0.33810000  0.60260000  1
  H  H237  1  0.73550000  0.33810000  0.54780000  1
  H  H238  1  0.91010000  0.33100000  0.73170000  1
  H  H239  1  0.59930000  0.33100000  0.42090000  1
  H  H240  1  0.95100000  0.67520000  0.77520000  1
  H  H241  1  0.90000000  0.67520000  0.72420000  1
  H  H242  1  0.08050000  0.67810000  0.91060000  1
  H  H243  1  0.76750000  0.67810000  0.59760000  1
  H  H244  1  0.11780000  0.34120000  0.95120000  1
  H  H245  1  0.39000000  0.34120000  0.22340000  1
  H  H246  1  0.54630000  0.67520000  0.39590000  1
  H  H247  1  0.27930000  0.67520000  0.12890000  1
  H  H248  1  0.24980000  0.35110000  0.10130000  1
  H  H249  1  0.95050000  0.37610000  0.80680000  1
  H  H250  1  0.56930000  0.37610000  0.42560000  1
  H  H251  1  0.39930000  0.66220000  0.26290000  1
  H  H252  1  0.07760000  0.37540000  0.94640000  1
  H  H253  1  0.42900000  0.37540000  0.29780000  1
  H  H254  1  0.07420000  0.63640000  0.94320000  1
  H  H255  1  0.69320000  0.63640000  0.56220000  1
  H  H256  1  0.84960000  0.39590000  0.72070000  1
  H  H257  1  0.67520000  0.39590000  0.54630000  1
  H  H258  1  0.55500000  0.63820000  0.43580000  1
  H  H259  1  0.20240000  0.63820000  0.08320000  1
  H  H260  1  0.95120000  0.61000000  0.83340000  1
  H  H261  1  0.77660000  0.61000000  0.65880000  1
  H  H262  1  0.85150000  0.10130000  0.75020000  1
  H  H263  1  0.35110000  0.10130000  0.24980000  1
  H  H264  1  0.77520000  0.95100000  0.67520000  1
  H  H265  1  0.27580000  0.95100000  0.17580000  1
  H  H266  1  0.42090000  0.59930000  0.33100000  1
  H  H267  1  0.26830000  0.59930000  0.17840000  1
  H  H268  1  0.32190000  0.40240000  0.23250000  1
  H  H269  1  0.16990000  0.40240000  0.08050000  1
  H  H270  1  0.88080000  0.43580000  0.79760000  1
  H  H271  1  0.63820000  0.43580000  0.55500000  1
  H  H272  1  0.91060000  0.23250000  0.83010000  1
  H  H273  1  0.40240000  0.23250000  0.32190000  1
  H  H274  1  0.94640000  0.57100000  0.86880000  1
  H  H275  1  0.70220000  0.57100000  0.62460000  1
  H  H276  1  0.94320000  0.30680000  0.86900000  1
  H  H277  1  0.43780000  0.30680000  0.36360000  1
  H  H278  1  0.36360000  0.43780000  0.30680000  1
  H  H279  1  0.13100000  0.43780000  0.07420000  1
  H  H280  1  0.62460000  0.70220000  0.57100000  1
  H  H281  1  0.13120000  0.70220000  0.07760000  1
  H  H282  1  0.42560000  0.56930000  0.37610000  1
  H  H283  1  0.19320000  0.56930000  0.14370000  1
  H  H284  1  0.72420000  0.90000000  0.67520000  1
  H  H285  1  0.22480000  0.90000000  0.17580000  1
  H  H286  1  0.65880000  0.77660000  0.61000000  1
  H  H287  1  0.16660000  0.77660000  0.11780000  1
  C  C288  1  0.71974000  0.93984000  0.72330000  1
  C  C289  1  0.21654000  0.93984000  0.22010000  1
  C  C290  1  0.56803000  0.64313000  0.57494000  1
  C  C291  1  0.06819000  0.64313000  0.07510000  1
  C  C292  1  0.59047000  0.69040000  0.60053000  1
  C  C293  1  0.08987000  0.69040000  0.09993000  1
  C  C294  1  0.73410000  0.98470000  0.74940000  1
  C  C295  1  0.23530000  0.98470000  0.25060000  1
  C  C296  1  0.63189000  0.77876000  0.64867000  1
  C  C297  1  0.13009000  0.77876000  0.14687000  1
  C  C298  1  0.65193000  0.82581000  0.67268000  1
  C  C299  1  0.15313000  0.82581000  0.17388000  1
  C  C300  1  0.85656000  0.24049000  0.88013000  1
  C  C301  1  0.36036000  0.24049000  0.38393000  1
  C  C302  1  0.87728000  0.28447000  0.90353000  1
  C  C303  1  0.38094000  0.28447000  0.40719000  1
  C  C304  1  0.66802000  0.86316000  0.69474000  1
  C  C305  1  0.16842000  0.86316000  0.19514000  1
  C  C306  1  0.68688000  0.90861000  0.72353000  1
  C  C307  1  0.18508000  0.90861000  0.22173000  1
  C  C308  1  0.76540000  0.07071000  0.80611000  1
  C  C309  1  0.26460000  0.07071000  0.30531000  1
  C  C310  1  0.58259000  0.71030000  0.63151000  1
  C  C311  1  0.07879000  0.71030000  0.12771000  1
  C  C312  1  0.60324000  0.75442000  0.65618000  1
  C  C313  1  0.09824000  0.75442000  0.15118000  1
  C  C314  1  0.71974000  0.99644000  0.77990000  1
  C  C315  1  0.21654000  0.99644000  0.27670000  1
  C  C316  1  0.85775000  0.42605000  0.92004000  1
  C  C317  1  0.50601000  0.42605000  0.56830000  1
  C  C318  1  0.92490000  0.56803000  0.99309000  1
  C  C319  1  0.57494000  0.56803000  0.64313000  1
  C  C320  1  0.73540000  0.04071000  0.80611000  1
  C  C321  1  0.23460000  0.04071000  0.30531000  1
  C  C322  1  0.78995000  0.41099000  0.86196000  1
  C  C323  1  0.54903000  0.41099000  0.62104000  1
  C  C324  1  0.35687000  0.42506000  0.43197000  1
  C  C325  1  0.99309000  0.42506000  0.06819000  1
  C  C326  1  0.87229000  0.58259000  0.95108000  1
  C  C327  1  0.63151000  0.58259000  0.71030000  1
  C  C328  1  0.67080000  0.92020000  0.75060000  1
  C  C329  1  0.16960000  0.92020000  0.24940000  1
  C  C330  1  0.42605000  0.56830000  0.50601000  1
  C  C331  1  0.06229000  0.56830000  0.14225000  1
  C  C332  1  0.80968000  0.40236000  0.89286000  1
  C  C333  1  0.50950000  0.40236000  0.59268000  1
  C  C334  1  0.90007000  0.59047000  0.98994000  1
  C  C335  1  0.60053000  0.59047000  0.69040000  1
  C  C336  1  0.68688000  0.96335000  0.77827000  1
  C  C337  1  0.18508000  0.96335000  0.27647000  1
  C  C338  1  0.74511000  0.39107000  0.83904000  1
  C  C339  1  0.55203000  0.39107000  0.64596000  1
  C  C340  1  0.28447000  0.40719000  0.38094000  1
  C  C341  1  0.02625000  0.40719000  0.12272000  1
  C  C342  1  0.84882000  0.60324000  0.94706000  1
  C  C343  1  0.65618000  0.60324000  0.75442000  1
  C  C344  1  0.30960000  0.39947000  0.40953000  1
  C  C345  1  0.98994000  0.39947000  0.08987000  1
  C  C346  1  0.36951000  0.58464000  0.47275000  1
  C  C347  1  0.11189000  0.58464000  0.21513000  1
  C  C348  1  0.40236000  0.59268000  0.50950000  1
  C  C349  1  0.08318000  0.59268000  0.19032000  1
  C  C350  1  0.78487000  0.36951000  0.89676000  1
  C  C351  1  0.47275000  0.36951000  0.58464000  1
  C  C352  1  0.24049000  0.38393000  0.36036000  1
  C  C353  1  0.02357000  0.38393000  0.14344000  1
  C  C354  1  0.72130000  0.35815000  0.84175000  1
  C  C355  1  0.51640000  0.35815000  0.63685000  1
  C  C356  1  0.59281000  0.61906000  0.71553000  1
  C  C357  1  0.90353000  0.61906000  0.02625000  1
  C  C358  1  0.28970000  0.36849000  0.41741000  1
  C  C359  1  0.95108000  0.36849000  0.07879000  1
  C  C360  1  0.85313000  0.63189000  0.98322000  1
  C  C361  1  0.64867000  0.63189000  0.77876000  1
  C  C362  1  0.73861000  0.34745000  0.86916000  1
  C  C363  1  0.47829000  0.34745000  0.60884000  1
  C  C364  1  0.34745000  0.60884000  0.47829000  1
  C  C365  1  0.13055000  0.60884000  0.26139000  1
  C  C366  1  0.66802000  0.97328000  0.80486000  1
  C  C367  1  0.16842000  0.97328000  0.30526000  1
  C  C368  1  0.41099000  0.62104000  0.54903000  1
  C  C369  1  0.07201000  0.62104000  0.21005000  1
  C  C370  1  0.43170000  0.49399000  0.57395000  1
  C  C371  1  0.92004000  0.49399000  0.06229000  1
  C  C372  1  0.67476000  0.33786000  0.81710000  1
  C  C373  1  0.52076000  0.33786000  0.66310000  1
  C  C374  1  0.61607000  0.63964000  0.75951000  1
  C  C375  1  0.88013000  0.63964000  0.02357000  1
  C  C376  1  0.22124000  0.35133000  0.36811000  1
  C  C377  1  0.98322000  0.35133000  0.13009000  1
  C  C378  1  0.24558000  0.34382000  0.39676000  1
  C  C379  1  0.94706000  0.34382000  0.09824000  1
  C  C380  1  0.82612000  0.65193000  0.97925000  1
  C  C381  1  0.67268000  0.65193000  0.82581000  1
  C  C382  1  0.63584000  0.31944000  0.79300000  1
  C  C383  1  0.52644000  0.31944000  0.68360000  1
  C  C384  1  0.57910000  0.31630000  0.73720000  1
  C  C385  1  0.35815000  0.63685000  0.51640000  1
  C  C386  1  0.12045000  0.63685000  0.27870000  1
  C  C387  1  0.39107000  0.64596000  0.55203000  1
  C  C388  1  0.09393000  0.64596000  0.25489000  1
  C  C389  1  0.80486000  0.66802000  0.97328000  1
  C  C390  1  0.69474000  0.66802000  0.86316000  1
  C  C391  1  0.75060000  0.67080000  0.92020000  1
  C  C392  1  0.59122000  0.30131000  0.76451000  1
  C  C393  1  0.53680000  0.30131000  0.71009000  1
  C  C394  1  0.17419000  0.32732000  0.34807000  1
  C  C395  1  0.97925000  0.32732000  0.15313000  1
  C  C396  1  0.65193000  0.97925000  0.82612000  1
  C  C397  1  0.15313000  0.97925000  0.32732000  1
  C  C398  1  0.33786000  0.66310000  0.52076000  1
  C  C399  1  0.14234000  0.66310000  0.32524000  1
  C  C400  1  0.77827000  0.68688000  0.96335000  1
  C  C401  1  0.72353000  0.68688000  0.90861000  1
  C  C402  1  0.40732000  0.49050000  0.59764000  1
  C  C403  1  0.89286000  0.49050000  0.08318000  1
  C  C404  1  0.07071000  0.30531000  0.26460000  1
  C  C405  1  0.04071000  0.30531000  0.23460000  1
  C  C406  1  0.13684000  0.30526000  0.33198000  1
  C  C407  1  0.97328000  0.30526000  0.16842000  1
  C  C408  1  0.55991000  0.26831000  0.76540000  1
  C  C409  1  0.50291000  0.26831000  0.70840000  1
  C  C410  1  0.25334000  0.68034000  0.45968000  1
  C  C411  1  0.22066000  0.68034000  0.42700000  1
  C  C412  1  0.31944000  0.68360000  0.52644000  1
  C  C413  1  0.15716000  0.68360000  0.36416000  1
  C  C414  1  0.37896000  0.45097000  0.58901000  1
  C  C415  1  0.86196000  0.45097000  0.07201000  1
  C  C416  1  0.41536000  0.52725000  0.63049000  1
  C  C417  1  0.89676000  0.52725000  0.11189000  1
  C  C418  1  0.77990000  0.71974000  0.99644000  1
  C  C419  1  0.72330000  0.71974000  0.93984000  1
  C  C420  1  0.51615000  0.25235000  0.73620000  1
  C  C421  1  0.06016000  0.27670000  0.28026000  1
  C  C422  1  0.99644000  0.27670000  0.21654000  1
  C  C423  1  0.57300000  0.25334000  0.79366000  1
  C  C424  1  0.45968000  0.25334000  0.68034000  1
  C  C425  1  0.63189000  0.98322000  0.85313000  1
  C  C426  1  0.13009000  0.98322000  0.35133000  1
  C  C427  1  0.09139000  0.27647000  0.31312000  1
  C  C428  1  0.96335000  0.27647000  0.18508000  1
  C  C429  1  0.69469000  0.73540000  0.92929000  1
  C  C430  1  0.26831000  0.70840000  0.50291000  1
  C  C431  1  0.20549000  0.70840000  0.44009000  1
  C  C432  1  0.80611000  0.73540000  0.04071000  1
  C  C433  1  0.74940000  0.73410000  0.98470000  1
  C  C434  1  0.30131000  0.71009000  0.53680000  1
  C  C435  1  0.17329000  0.71009000  0.40878000  1
  C  C436  1  0.63964000  0.02357000  0.88013000  1
  C  C437  1  0.14344000  0.02357000  0.38393000  1
  C  C438  1  0.60324000  0.94706000  0.84882000  1
  C  C439  1  0.09824000  0.94706000  0.34382000  1
  C  C440  1  0.07980000  0.24940000  0.32920000  1
  C  C441  1  0.92020000  0.24940000  0.16960000  1
  C  C442  1  0.01530000  0.25060000  0.26590000  1
  C  C443  1  0.98470000  0.25060000  0.23530000  1
  C  C444  1  0.48385000  0.22005000  0.73620000  1
  C  C445  1  0.54032000  0.22066000  0.79366000  1
  C  C446  1  0.42700000  0.22066000  0.68034000  1
  C  C447  1  0.35404000  0.44797000  0.60893000  1
  C  C448  1  0.83904000  0.44797000  0.09393000  1
  C  C449  1  0.39116000  0.52171000  0.65255000  1
  C  C450  1  0.86916000  0.52171000  0.13055000  1
  C  C451  1  0.31630000  0.73720000  0.57910000  1
  C  C452  1  0.15810000  0.73720000  0.42090000  1
  C  C453  1  0.25235000  0.73620000  0.51615000  1
  C  C454  1  0.22005000  0.73620000  0.48385000  1
  C  C455  1  0.69469000  0.76540000  0.95929000  1
  C  C456  1  0.80611000  0.76540000  0.07071000  1
  C  C457  1  0.74940000  0.76470000  0.01530000  1
  C  C458  1  0.49709000  0.20549000  0.76540000  1
  C  C459  1  0.44009000  0.20549000  0.70840000  1
  C  C460  1  0.03665000  0.22173000  0.31312000  1
  C  C461  1  0.90861000  0.22173000  0.18508000  1
  C  C462  1  0.00356000  0.22010000  0.28026000  1
  C  C463  1  0.93984000  0.22010000  0.21654000  1
  C  C464  1  0.36315000  0.48360000  0.64185000  1
  C  C465  1  0.84175000  0.48360000  0.12045000  1
  C  C466  1  0.77990000  0.78346000  0.06016000  1
  C  C467  1  0.72330000  0.78346000  0.00356000  1
  C  C468  1  0.61906000  0.02625000  0.90353000  1
  C  C469  1  0.12272000  0.02625000  0.40719000  1
  C  C470  1  0.58259000  0.95108000  0.87229000  1
  C  C471  1  0.07879000  0.95108000  0.36849000  1
  C  C472  1  0.30131000  0.76451000  0.59122000  1
  C  C473  1  0.17329000  0.76451000  0.46320000  1
  C  C474  1  0.26831000  0.76540000  0.55991000  1
  C  C475  1  0.20549000  0.76540000  0.49709000  1
  C  C476  1  0.46320000  0.17329000  0.76451000  1
  C  C477  1  0.40878000  0.17329000  0.71009000  1
  C  C478  1  0.02672000  0.19514000  0.33198000  1
  C  C479  1  0.86316000  0.19514000  0.16842000  1
  C  C480  1  0.95929000  0.19389000  0.26460000  1
  C  C481  1  0.92929000  0.19389000  0.23460000  1
  C  C482  1  0.59047000  0.98994000  0.90007000  1
  C  C483  1  0.08987000  0.98994000  0.39947000  1
  C  C484  1  0.77827000  0.81492000  0.09139000  1
  C  C485  1  0.72353000  0.81492000  0.03665000  1
  C  C486  1  0.42090000  0.15810000  0.73720000  1
  C  C487  1  0.31944000  0.79300000  0.63584000  1
  C  C488  1  0.15716000  0.79300000  0.47356000  1
  C  C489  1  0.47356000  0.15716000  0.79300000  1
  C  C490  1  0.36416000  0.15716000  0.68360000  1
  C  C491  1  0.25334000  0.79366000  0.57300000  1
  C  C492  1  0.22066000  0.79366000  0.54032000  1
  C  C493  1  0.33690000  0.47924000  0.66214000  1
  C  C494  1  0.81710000  0.47924000  0.14234000  1
  C  C495  1  0.02075000  0.17388000  0.34807000  1
  C  C496  1  0.82581000  0.17388000  0.15313000  1
  C  C497  1  0.75060000  0.83040000  0.07980000  1
  C  C498  1  0.80486000  0.83158000  0.13684000  1
  C  C499  1  0.69474000  0.83158000  0.02672000  1
  C  C500  1  0.33786000  0.81710000  0.67476000  1
  C  C501  1  0.14234000  0.81710000  0.47924000  1
  C  C502  1  0.47924000  0.14234000  0.81710000  1
  C  C503  1  0.32524000  0.14234000  0.66310000  1
  C  C504  1  0.05294000  0.15118000  0.39676000  1
  C  C505  1  0.75442000  0.15118000  0.09824000  1
  C  C506  1  0.52171000  0.13055000  0.86916000  1
  C  C507  1  0.26139000  0.13055000  0.60884000  1
  C  C508  1  0.82612000  0.84687000  0.17419000  1
  C  C509  1  0.67268000  0.84687000  0.02075000  1
  C  C510  1  0.01678000  0.14687000  0.36811000  1
  C  C511  1  0.77876000  0.14687000  0.13009000  1
  C  C512  1  0.39107000  0.83904000  0.74511000  1
  C  C513  1  0.09393000  0.83904000  0.44797000  1
  C  C514  1  0.56803000  0.99309000  0.92490000  1
  C  C515  1  0.06819000  0.99309000  0.42506000  1
  C  C516  1  0.48360000  0.12045000  0.84175000  1
  C  C517  1  0.27870000  0.12045000  0.63685000  1
  C  C518  1  0.61607000  0.85656000  0.97643000  1
  C  C519  1  0.88013000  0.85656000  0.24049000  1
  C  C520  1  0.35815000  0.84175000  0.72130000  1
  C  C521  1  0.12045000  0.84175000  0.48360000  1
  C  C522  1  0.31640000  0.47356000  0.68056000  1
  C  C523  1  0.79300000  0.47356000  0.15716000  1
  C  C524  1  0.85313000  0.86991000  0.22124000  1
  C  C525  1  0.64867000  0.86991000  0.01678000  1
  C  C526  1  0.04892000  0.12771000  0.41741000  1
  C  C527  1  0.71030000  0.12771000  0.07879000  1
  C  C528  1  0.52725000  0.11189000  0.89676000  1
  C  C529  1  0.21513000  0.11189000  0.58464000  1
  C  C530  1  0.41099000  0.86196000  0.78995000  1
  C  C531  1  0.07201000  0.86196000  0.45097000  1
  C  C532  1  0.59281000  0.87728000  0.97375000  1
  C  C533  1  0.90353000  0.87728000  0.28447000  1
  C  C534  1  0.97643000  0.11987000  0.36036000  1
  C  C535  1  0.75951000  0.11987000  0.14344000  1
  C  C536  1  0.44797000  0.09393000  0.83904000  1
  C  C537  1  0.25489000  0.09393000  0.64596000  1
  C  C538  1  0.34745000  0.86916000  0.73861000  1
  C  C539  1  0.13055000  0.86916000  0.52171000  1
  C  C540  1  0.84882000  0.90176000  0.24558000  1
  C  C541  1  0.65618000  0.90176000  0.05294000  1
  C  C542  1  0.01006000  0.09993000  0.40953000  1
  C  C543  1  0.69040000  0.09993000  0.08987000  1
  C  C544  1  0.49050000  0.08318000  0.89286000  1
  C  C545  1  0.19032000  0.08318000  0.59268000  1
  C  C546  1  0.97375000  0.09647000  0.38094000  1
  C  C547  1  0.71553000  0.09647000  0.12272000  1
  C  C548  1  0.40236000  0.89286000  0.80968000  1
  C  C549  1  0.08318000  0.89286000  0.49050000  1
  C  C550  1  0.28991000  0.46320000  0.69869000  1
  C  C551  1  0.76451000  0.46320000  0.17329000  1
  C  C552  1  0.90007000  0.91013000  0.30960000  1
  C  C553  1  0.60053000  0.91013000  0.01006000  1
  C  C554  1  0.45097000  0.07201000  0.86196000  1
  C  C555  1  0.21005000  0.07201000  0.62104000  1
  C  C556  1  0.36951000  0.89676000  0.78487000  1
  C  C557  1  0.11189000  0.89676000  0.52725000  1
  C  C558  1  0.87229000  0.92121000  0.28970000  1
  C  C559  1  0.63151000  0.92121000  0.04892000  1
  C  C560  1  0.26280000  0.42090000  0.68370000  1
  C  C561  1  0.73720000  0.42090000  0.15810000  1
  C  C562  1  0.00691000  0.07510000  0.43197000  1
  C  C563  1  0.64313000  0.07510000  0.06819000  1
  C  C564  1  0.49399000  0.06229000  0.92004000  1
  C  C565  1  0.14225000  0.06229000  0.56830000  1
  C  C566  1  0.31966000  0.54032000  0.74666000  1
  C  C567  1  0.79366000  0.54032000  0.22066000  1
  C  C568  1  0.42605000  0.92004000  0.85775000  1
  C  C569  1  0.06229000  0.92004000  0.49399000  1
  C  C570  1  0.92490000  0.93181000  0.35687000  1
  C  C571  1  0.57494000  0.93181000  0.00691000  1
  C  C572  1  0.29160000  0.49709000  0.73169000  1
  C  C573  1  0.76540000  0.49709000  0.20549000  1
  C  C574  1  0.16096000  0.25489000  0.60893000  1
  C  C575  1  0.64596000  0.25489000  0.09393000  1
  C  C576  1  0.13804000  0.21005000  0.58901000  1
  C  C577  1  0.62104000  0.21005000  0.07201000  1
  C  C578  1  0.31966000  0.57300000  0.77934000  1
  C  C579  1  0.79366000  0.57300000  0.25334000  1
  C  C580  1  0.23549000  0.40878000  0.69869000  1
  C  C581  1  0.71009000  0.40878000  0.17329000  1
  C  C582  1  0.41536000  0.78487000  0.88811000  1
  C  C583  1  0.89676000  0.78487000  0.36951000  1
  C  C584  1  0.20700000  0.36416000  0.68056000  1
  C  C585  1  0.68360000  0.36416000  0.15716000  1
  C  C586  1  0.39116000  0.73861000  0.86945000  1
  C  C587  1  0.86916000  0.73861000  0.34745000  1
  C  C588  1  0.18290000  0.32524000  0.66214000  1
  C  C589  1  0.66310000  0.32524000  0.14234000  1
  C  C590  1  0.15825000  0.27870000  0.64185000  1
  C  C591  1  0.63685000  0.27870000  0.12045000  1
  C  C592  1  0.26380000  0.48385000  0.74765000  1
  C  C593  1  0.73620000  0.48385000  0.22005000  1
  C  C594  1  0.10714000  0.19032000  0.59764000  1
  C  C595  1  0.59268000  0.19032000  0.08318000  1
  C  C596  1  0.07996000  0.14225000  0.57395000  1
  C  C597  1  0.56830000  0.14225000  0.06229000  1
  C  C598  1  0.23460000  0.44009000  0.73169000  1
  C  C599  1  0.70840000  0.44009000  0.20549000  1
  C  C600  1  0.29160000  0.55991000  0.79451000  1
  C  C601  1  0.76540000  0.55991000  0.26831000  1
  C  C602  1  0.43170000  0.85775000  0.93771000  1
  C  C603  1  0.92004000  0.85775000  0.42605000  1
  C  C604  1  0.40732000  0.80968000  0.91682000  1
  C  C605  1  0.89286000  0.80968000  0.40236000  1
  C  C606  1  0.26380000  0.51615000  0.77995000  1
  C  C607  1  0.73620000  0.51615000  0.25235000  1
  C  C608  1  0.36315000  0.72130000  0.87955000  1
  C  C609  1  0.84175000  0.72130000  0.35815000  1
  C  C610  1  0.33690000  0.67476000  0.85766000  1
  C  C611  1  0.81710000  0.67476000  0.33786000  1
  C  C612  1  0.13084000  0.26139000  0.65255000  1
  C  C613  1  0.60884000  0.26139000  0.13055000  1
  C  C614  1  0.31640000  0.63584000  0.84284000  1
  C  C615  1  0.79300000  0.63584000  0.31944000  1
  C  C616  1  0.10324000  0.21513000  0.63049000  1
  C  C617  1  0.58464000  0.21513000  0.11189000  1
  C  C618  1  0.28991000  0.59122000  0.82671000  1
  C  C619  1  0.76451000  0.59122000  0.30131000  1
  C  C620  1  0.20634000  0.42700000  0.74666000  1
  C  C621  1  0.68034000  0.42700000  0.22066000  1
  C  C622  1  0.37896000  0.78995000  0.92799000  1
  C  C623  1  0.86196000  0.78995000  0.41099000  1
  C  C624  1  0.35404000  0.74511000  0.90607000  1
  C  C625  1  0.83904000  0.74511000  0.39107000  1
  C  C626  1  0.23460000  0.50291000  0.79451000  1
  C  C627  1  0.70840000  0.50291000  0.26831000  1
  C  C628  1  0.42506000  0.06819000  0.99309000  1
  C  C629  1  0.07510000  0.06819000  0.64313000  1
  C  C630  1  0.93771000  0.07996000  0.50601000  1
  C  C631  1  0.57395000  0.07996000  0.14225000  1
  C  C632  1  0.20634000  0.45968000  0.77934000  1
  C  C633  1  0.68034000  0.45968000  0.25334000  1
  C  C634  1  0.85775000  0.93771000  0.43170000  1
  C  C635  1  0.50601000  0.93771000  0.07996000  1
  C  C636  1  0.35687000  0.92490000  0.93181000  1
  C  C637  1  0.99309000  0.92490000  0.56803000  1
  C  C638  1  0.26280000  0.57910000  0.84190000  1
  C  C639  1  0.73720000  0.57910000  0.31630000  1
  C  C640  1  0.36849000  0.07879000  0.95108000  1
  C  C641  1  0.12771000  0.07879000  0.71030000  1
  C  C642  1  0.88811000  0.10324000  0.47275000  1
  C  C643  1  0.63049000  0.10324000  0.21513000  1
  C  C644  1  0.78995000  0.92799000  0.37896000  1
  C  C645  1  0.54903000  0.92799000  0.13804000  1
  C  C646  1  0.39947000  0.08987000  0.98994000  1
  C  C647  1  0.09993000  0.08987000  0.69040000  1
  C  C648  1  0.23549000  0.53680000  0.82671000  1
  C  C649  1  0.71009000  0.53680000  0.30131000  1
  C  C650  1  0.91682000  0.10714000  0.50950000  1
  C  C651  1  0.59764000  0.10714000  0.19032000  1
  C  C652  1  0.28447000  0.90353000  0.87728000  1
  C  C653  1  0.02625000  0.90353000  0.61906000  1
  C  C654  1  0.80968000  0.91682000  0.40732000  1
  C  C655  1  0.50950000  0.91682000  0.10714000  1
  C  C656  1  0.30960000  0.90007000  0.91013000  1
  C  C657  1  0.98994000  0.90007000  0.59047000  1
  C  C658  1  0.34382000  0.09824000  0.94706000  1
  C  C659  1  0.15118000  0.09824000  0.75442000  1
  C  C660  1  0.86945000  0.13084000  0.47829000  1
  C  C661  1  0.65255000  0.13084000  0.26139000  1
  C  C662  1  0.74511000  0.90607000  0.35404000  1
  C  C663  1  0.55203000  0.90607000  0.16096000  1
  C  C664  1  0.24049000  0.88013000  0.85656000  1
  C  C665  1  0.02357000  0.88013000  0.63964000  1
  C  C666  1  0.09647000  0.12272000  0.71553000  1
  C  C667  1  0.40719000  0.12272000  0.02625000  1
  C  C668  1  0.92799000  0.13804000  0.54903000  1
  C  C669  1  0.58901000  0.13804000  0.21005000  1
  C  C670  1  0.78487000  0.88811000  0.41536000  1
  C  C671  1  0.47275000  0.88811000  0.10324000  1
  C  C672  1  0.28970000  0.87229000  0.92121000  1
  C  C673  1  0.95108000  0.87229000  0.58259000  1
  C  C674  1  0.35133000  0.13009000  0.98322000  1
  C  C675  1  0.14687000  0.13009000  0.77876000  1
  C  C676  1  0.20700000  0.52644000  0.84284000  1
  C  C677  1  0.68360000  0.52644000  0.31944000  1
  C  C678  1  0.87955000  0.15825000  0.51640000  1
  C  C679  1  0.64185000  0.15825000  0.27870000  1
  C  C680  1  0.11987000  0.14344000  0.75951000  1
  C  C681  1  0.38393000  0.14344000  0.02357000  1
  C  C682  1  0.72130000  0.87955000  0.36315000  1
  C  C683  1  0.51640000  0.87955000  0.15825000  1
  C  C684  1  0.93181000  0.00691000  0.57494000  1
  C  C685  1  0.43197000  0.00691000  0.07510000  1
  C  C686  1  0.90607000  0.16096000  0.55203000  1
  C  C687  1  0.60893000  0.16096000  0.25489000  1
  C  C688  1  0.22124000  0.85313000  0.86991000  1
  C  C689  1  0.98322000  0.85313000  0.63189000  1
  C  C690  1  0.32732000  0.15313000  0.97925000  1
  C  C691  1  0.17388000  0.15313000  0.82581000  1
  C  C692  1  0.73861000  0.86945000  0.39116000  1
  C  C693  1  0.47829000  0.86945000  0.13084000  1
  C  C694  1  0.24558000  0.84882000  0.90176000  1
  C  C695  1  0.94706000  0.84882000  0.60324000  1
  C  C696  1  0.67476000  0.85766000  0.33690000  1
  C  C697  1  0.52076000  0.85766000  0.18290000  1
  C  C698  1  0.85766000  0.18290000  0.52076000  1
  C  C699  1  0.66214000  0.18290000  0.32524000  1
  C  C700  1  0.30526000  0.16842000  0.97328000  1
  C  C701  1  0.19514000  0.16842000  0.86316000  1
  C  C702  1  0.24940000  0.16960000  0.92020000  1
  C  C703  1  0.17419000  0.82612000  0.84687000  1
  C  C704  1  0.97925000  0.82612000  0.65193000  1
  C  C705  1  0.18290000  0.52076000  0.85766000  1
  C  C706  1  0.66310000  0.52076000  0.33786000  1
  C  C707  1  0.77934000  0.20634000  0.45968000  1
  C  C708  1  0.74666000  0.20634000  0.42700000  1
  C  C709  1  0.63584000  0.84284000  0.31640000  1
  C  C710  1  0.52644000  0.84284000  0.20700000  1
  C  C711  1  0.84284000  0.20700000  0.52644000  1
  C  C712  1  0.68056000  0.20700000  0.36416000  1
  C  C713  1  0.57910000  0.84190000  0.26280000  1
  C  C714  1  0.27647000  0.18508000  0.96335000  1
  C  C715  1  0.22173000  0.18508000  0.90861000  1
  C  C716  1  0.91013000  0.01006000  0.60053000  1
  C  C717  1  0.40953000  0.01006000  0.09993000  1
  C  C718  1  0.07071000  0.80611000  0.76540000  1
  C  C719  1  0.04071000  0.80611000  0.73540000  1
  C  C720  1  0.13684000  0.80486000  0.83158000  1
  C  C721  1  0.97328000  0.80486000  0.66802000  1
  C  C722  1  0.59122000  0.82671000  0.28991000  1
  C  C723  1  0.53680000  0.82671000  0.23549000  1
  C  C724  1  0.79451000  0.23460000  0.50291000  1
  C  C725  1  0.73169000  0.23460000  0.44009000  1
  C  C726  1  0.82671000  0.23549000  0.53680000  1
  C  C727  1  0.69869000  0.23549000  0.40878000  1
  C  C728  1  0.92121000  0.04892000  0.63151000  1
  C  C729  1  0.41741000  0.04892000  0.12771000  1
  C  C730  1  0.87728000  0.97375000  0.59281000  1
  C  C731  1  0.38094000  0.97375000  0.09647000  1
  C  C732  1  0.27670000  0.21654000  0.99644000  1
  C  C733  1  0.22010000  0.21654000  0.93984000  1
  C  C734  1  0.15825000  0.51640000  0.87955000  1
  C  C735  1  0.63685000  0.51640000  0.35815000  1
  C  C736  1  0.06016000  0.77990000  0.78346000  1
  C  C737  1  0.99644000  0.77990000  0.71974000  1
  C  C738  1  0.09139000  0.77827000  0.81492000  1
  C  C739  1  0.96335000  0.77827000  0.68688000  1
  C  C740  1  0.55991000  0.79451000  0.29160000  1
  C  C741  1  0.50291000  0.79451000  0.23460000  1
  C  C742  1  0.25060000  0.23530000  0.98470000  1
  C  C743  1  0.19389000  0.23460000  0.92929000  1
  C  C744  1  0.30531000  0.23460000  0.04071000  1
  C  C745  1  0.77995000  0.26380000  0.51615000  1
  C  C746  1  0.74765000  0.26380000  0.48385000  1
  C  C747  1  0.84190000  0.26280000  0.57910000  1
  C  C748  1  0.68370000  0.26280000  0.42090000  1
  C  C749  1  0.13084000  0.47829000  0.86945000  1
  C  C750  1  0.60884000  0.47829000  0.34745000  1
  C  C751  1  0.16096000  0.55203000  0.90607000  1
  C  C752  1  0.64596000  0.55203000  0.39107000  1
  C  C753  1  0.57300000  0.77934000  0.31966000  1
  C  C754  1  0.45968000  0.77934000  0.20634000  1
  C  C755  1  0.51615000  0.77995000  0.26380000  1
  C  C756  1  0.01530000  0.74940000  0.76470000  1
  C  C757  1  0.98470000  0.74940000  0.73410000  1
  C  C758  1  0.07980000  0.75060000  0.83040000  1
  C  C759  1  0.92020000  0.75060000  0.67080000  1
  C  C760  1  0.90176000  0.05294000  0.65618000  1
  C  C761  1  0.39676000  0.05294000  0.15118000  1
  C  C762  1  0.85656000  0.97643000  0.61607000  1
  C  C763  1  0.36036000  0.97643000  0.11987000  1
  C  C764  1  0.82671000  0.28991000  0.59122000  1
  C  C765  1  0.69869000  0.28991000  0.46320000  1
  C  C766  1  0.25060000  0.26590000  0.01530000  1
  C  C767  1  0.19389000  0.26460000  0.95929000  1
  C  C768  1  0.79451000  0.29160000  0.55991000  1
  C  C769  1  0.73169000  0.29160000  0.49709000  1
  C  C770  1  0.30531000  0.26460000  0.07071000  1
  C  C771  1  0.03665000  0.72353000  0.81492000  1
  C  C772  1  0.90861000  0.72353000  0.68688000  1
  C  C773  1  0.86991000  0.01678000  0.64867000  1
  C  C774  1  0.36811000  0.01678000  0.14687000  1
  C  C775  1  0.54032000  0.74666000  0.31966000  1
  C  C776  1  0.42700000  0.74666000  0.20634000  1
  C  C777  1  0.00356000  0.72330000  0.78346000  1
  C  C778  1  0.93984000  0.72330000  0.71974000  1
  C  C779  1  0.48385000  0.74765000  0.26380000  1
  C  C780  1  0.27670000  0.28026000  0.06016000  1
  C  C781  1  0.22010000  0.28026000  0.00356000  1
  C  C782  1  0.10324000  0.47275000  0.88811000  1
  C  C783  1  0.58464000  0.47275000  0.36951000  1
  C  C784  1  0.13804000  0.54903000  0.92799000  1
  C  C785  1  0.62104000  0.54903000  0.41099000  1
  C  C786  1  0.84284000  0.31640000  0.63584000  1
  C  C787  1  0.68056000  0.31640000  0.47356000  1
  C  C788  1  0.77934000  0.31966000  0.57300000  1
  C  C789  1  0.74666000  0.31966000  0.54032000  1
  C  C790  1  0.49709000  0.73169000  0.29160000  1
  C  C791  1  0.44009000  0.73169000  0.23460000  1
  C  C792  1  0.02672000  0.69474000  0.83158000  1
  C  C793  1  0.86316000  0.69474000  0.66802000  1
  C  C794  1  0.95929000  0.69469000  0.76540000  1
  C  C795  1  0.92929000  0.69469000  0.73540000  1
  C  C796  1  0.10714000  0.50950000  0.91682000  1
  C  C797  1  0.59268000  0.50950000  0.40236000  1
  C  C798  1  0.27647000  0.31312000  0.09139000  1
  C  C799  1  0.22173000  0.31312000  0.03665000  1
  C  C800  1  0.85766000  0.33690000  0.67476000  1
  C  C801  1  0.66214000  0.33690000  0.47924000  1
  C  C802  1  0.84687000  0.02075000  0.67268000  1
  C  C803  1  0.34807000  0.02075000  0.17388000  1
  C  C804  1  0.02075000  0.67268000  0.84687000  1
  C  C805  1  0.82581000  0.67268000  0.65193000  1
  C  C806  1  0.46320000  0.69869000  0.28991000  1
  C  C807  1  0.40878000  0.69869000  0.23549000  1
  C  C808  1  0.24940000  0.32920000  0.07980000  1
  C  C809  1  0.30526000  0.33198000  0.13684000  1
  C  C810  1  0.19514000  0.33198000  0.02672000  1
  C  C811  1  0.90607000  0.35404000  0.74511000  1
  C  C812  1  0.60893000  0.35404000  0.44797000  1
  C  C813  1  0.87955000  0.36315000  0.72130000  1
  C  C814  1  0.64185000  0.36315000  0.48360000  1
  C  C815  1  0.42090000  0.68370000  0.26280000  1
  C  C816  1  0.47356000  0.68056000  0.31640000  1
  C  C817  1  0.36416000  0.68056000  0.20700000  1
  C  C818  1  0.32732000  0.34807000  0.17419000  1
  C  C819  1  0.17388000  0.34807000  0.02075000  1
  C  C820  1  0.05294000  0.65618000  0.90176000  1
  C  C821  1  0.75442000  0.65618000  0.60324000  1
  C  C822  1  0.01678000  0.64867000  0.86991000  1
  C  C823  1  0.77876000  0.64867000  0.63189000  1
  C  C824  1  0.11987000  0.36036000  0.97643000  1
  C  C825  1  0.38393000  0.36036000  0.24049000  1
  C  C826  1  0.47924000  0.66214000  0.33690000  1
  C  C827  1  0.32524000  0.66214000  0.18290000  1
  C  C828  1  0.07996000  0.50601000  0.93771000  1
  C  C829  1  0.56830000  0.50601000  0.42605000  1
  C  C830  1  0.92799000  0.37896000  0.78995000  1
  C  C831  1  0.58901000  0.37896000  0.45097000  1
  C  C832  1  0.83158000  0.02672000  0.69474000  1
  C  C833  1  0.33198000  0.02672000  0.19514000  1
  C  C834  1  0.86945000  0.39116000  0.73861000  1
  C  C835  1  0.65255000  0.39116000  0.52171000  1
  C  C836  1  0.52171000  0.65255000  0.39116000  1
  C  C837  1  0.26139000  0.65255000  0.13084000  1
  C  C838  1  0.35133000  0.36811000  0.22124000  1
  C  C839  1  0.14687000  0.36811000  0.01678000  1
  C  C840  1  0.04892000  0.63151000  0.92121000  1
  C  C841  1  0.71030000  0.63151000  0.58259000  1
  C  C842  1  0.09647000  0.38094000  0.97375000  1
  C  C843  1  0.40719000  0.38094000  0.28447000  1
  C  C844  1  0.48360000  0.64185000  0.36315000  1
  C  C845  1  0.27870000  0.64185000  0.15825000  1
  C  C846  1  0.97643000  0.61607000  0.85656000  1
  C  C847  1  0.75951000  0.61607000  0.63964000  1
  C  C848  1  0.52725000  0.63049000  0.41536000  1
  C  C849  1  0.21513000  0.63049000  0.10324000  1
  C  C850  1  0.91682000  0.40732000  0.80968000  1
  C  C851  1  0.59764000  0.40732000  0.49050000  1
  C  C852  1  0.88811000  0.41536000  0.78487000  1
  C  C853  1  0.63049000  0.41536000  0.52725000  1
  C  C854  1  0.01006000  0.60053000  0.91013000  1
  C  C855  1  0.69040000  0.60053000  0.59047000  1
  C  C856  1  0.34382000  0.39676000  0.24558000  1
  C  C857  1  0.15118000  0.39676000  0.05294000  1
  C  C858  1  0.97375000  0.59281000  0.87728000  1
  C  C859  1  0.71553000  0.59281000  0.61906000  1
  C  C860  1  0.44797000  0.60893000  0.35404000  1
  C  C861  1  0.25489000  0.60893000  0.16096000  1
  C  C862  1  0.81492000  0.03665000  0.72353000  1
  C  C863  1  0.31312000  0.03665000  0.22173000  1
  C  C864  1  0.39947000  0.40953000  0.30960000  1
  C  C865  1  0.09993000  0.40953000  0.01006000  1
  C  C866  1  0.49050000  0.59764000  0.40732000  1
  C  C867  1  0.19032000  0.59764000  0.10714000  1
  C  C868  1  0.93771000  0.43170000  0.85775000  1
  C  C869  1  0.57395000  0.43170000  0.49399000  1
  C  C870  1  0.83040000  0.07980000  0.75060000  1
  C  C871  1  0.32920000  0.07980000  0.24940000  1
  C  C872  1  0.36849000  0.41741000  0.28970000  1
  C  C873  1  0.12771000  0.41741000  0.04892000  1
  C  C874  1  0.00691000  0.57494000  0.93181000  1
  C  C875  1  0.64313000  0.57494000  0.56803000  1
  C  C876  1  0.45097000  0.58901000  0.37896000  1
  C  C877  1  0.21005000  0.58901000  0.13804000  1
  C  C878  1  0.76540000  0.95929000  0.69469000  1
  C  C879  1  0.26460000  0.95929000  0.19389000  1
  C  C880  1  0.42506000  0.43197000  0.35687000  1
  C  C881  1  0.07510000  0.43197000  0.00691000  1
  C  C882  1  0.49399000  0.57395000  0.43170000  1
  C  C883  1  0.14225000  0.57395000  0.07996000  1
  C  C884  1  0.78346000  0.00356000  0.72330000  1
  C  C885  1  0.28026000  0.00356000  0.22010000  1
  C  C886  1  0.90176000  0.24558000  0.84882000  1
  C  C887  1  0.39676000  0.24558000  0.34382000  1
  C  C888  1  0.92121000  0.28970000  0.87229000  1
  C  C889  1  0.41741000  0.28970000  0.36849000  1
  C  C890  1  0.73540000  0.92929000  0.69469000  1
  C  C891  1  0.23460000  0.92929000  0.19389000  1
  C  C892  1  0.81492000  0.09139000  0.77827000  1
  C  C893  1  0.31312000  0.09139000  0.27647000  1
  C  C894  1  0.83158000  0.13684000  0.80486000  1
  C  C895  1  0.33198000  0.13684000  0.30526000  1
  C  C896  1  0.61906000  0.71553000  0.59281000  1
  C  C897  1  0.12272000  0.71553000  0.09647000  1
  C  C898  1  0.63964000  0.75951000  0.61607000  1
  C  C899  1  0.14344000  0.75951000  0.11987000  1
  C  C900  1  0.84687000  0.17419000  0.82612000  1
  C  C901  1  0.34807000  0.17419000  0.32732000  1
  C  C902  1  0.86991000  0.22124000  0.85313000  1
  C  C903  1  0.36811000  0.22124000  0.35133000  1
  C  C904  1  0.76470000  0.01530000  0.74940000  1
  C  C905  1  0.26590000  0.01530000  0.25060000  1
  C  C906  1  0.91013000  0.30960000  0.90007000  1
  C  C907  1  0.40953000  0.30960000  0.39947000  1
  C  C908  1  0.93181000  0.35687000  0.92490000  1
  C  C909  1  0.43197000  0.35687000  0.42506000  1
  C  C910  1  0.78346000  0.06016000  0.77990000  1
  C  C911  1  0.28026000  0.06016000  0.27670000  1
  O  O912  1  0.55534000  0.55534000  0.55534000  1
  O  O913  1  0.44466000  0.44466000  0.44466000  1
  O  O914  1  0.00000000  0.44466000  1.00000000  1
  O  O915  1  0.00000000  0.55534000  1.00000000  1
  O  O916  1  0.49765000  0.55516000  0.50249000  1
  O  O917  1  0.05267000  0.55516000  0.05751000  1
  O  O918  1  0.91977000  0.37330000  0.94985000  1
  O  O919  1  0.42345000  0.37330000  0.45353000  1
  O  O920  1  0.87754000  0.45423000  0.91259000  1
  O  O921  1  0.54164000  0.45423000  0.57669000  1
  O  O922  1  0.91927000  0.54199000  0.95750000  1
  O  O923  1  0.58449000  0.54199000  0.62272000  1
  O  O924  1  0.54199000  0.62272000  0.58449000  1
  O  O925  1  0.03823000  0.62272000  0.08073000  1
  O  O926  1  0.37330000  0.45353000  0.42345000  1
  O  O927  1  0.03008000  0.45353000  0.08023000  1
  O  O928  1  0.41607000  0.54223000  0.46860000  1
  O  O929  1  0.07363000  0.54223000  0.12616000  1
  O  O930  1  0.94249000  0.49765000  0.99516000  1
  O  O931  1  0.50249000  0.49765000  0.55516000  1
  O  O932  1  0.44484000  0.49751000  0.50235000  1
  O  O933  1  0.99516000  0.49751000  0.05267000  1
  O  O934  1  0.87384000  0.41607000  0.94747000  1
  O  O935  1  0.46860000  0.41607000  0.54223000  1
  O  O936  1  0.54647000  0.57655000  0.62670000  1
  O  O937  1  0.94985000  0.57655000  0.03008000  1
  O  O938  1  0.37728000  0.41551000  0.45801000  1
  O  O939  1  0.95750000  0.41551000  0.03823000  1
  O  O940  1  0.45423000  0.57669000  0.54164000  1
  O  O941  1  0.03505000  0.57669000  0.12246000  1
  O  O942  1  0.42331000  0.45836000  0.54577000  1
  O  O943  1  0.91259000  0.45836000  0.03505000  1
  O  O944  1  0.45777000  0.53140000  0.58393000  1
  O  O945  1  0.94747000  0.53140000  0.07363000  1
  O  O946  1  0.57655000  0.03008000  0.94985000  1
  O  O947  1  0.08023000  0.03008000  0.45353000  1
  O  O948  1  0.54199000  0.95750000  0.91927000  1
  O  O949  1  0.03823000  0.95750000  0.41551000  1
  O  O950  1  0.04250000  0.08073000  0.45801000  1
  O  O951  1  0.62272000  0.08073000  0.03823000  1
  O  O952  1  0.53140000  0.07363000  0.94747000  1
  O  O953  1  0.12616000  0.07363000  0.54223000  1
  O  O954  1  0.45423000  0.91259000  0.87754000  1
  O  O955  1  0.03505000  0.91259000  0.45836000  1
  O  O956  1  0.54647000  0.91977000  0.96992000  1
  O  O957  1  0.94985000  0.91977000  0.37330000  1
  O  O958  1  1.00000000  1.00000000  0.44466000  1
  O  O959  1  0.55534000  0.00000000  0.00000000  1
  O  O960  1  0.49765000  0.99516000  0.94249000  1
  O  O961  1  0.05267000  0.99516000  0.49751000  1
  O  O962  1  0.96992000  0.05015000  0.42345000  1
  O  O963  1  0.62670000  0.05015000  0.08023000  1
  O  O964  1  0.45836000  0.03505000  0.91259000  1
  O  O965  1  0.12246000  0.03505000  0.57669000  1
  O  O966  1  0.41607000  0.94747000  0.87384000  1
  O  O967  1  0.07363000  0.94747000  0.53140000  1
  O  O968  1  0.91927000  0.96177000  0.37728000  1
  O  O969  1  0.58449000  0.96177000  0.04250000  1
  O  O970  1  0.08741000  0.12246000  0.54577000  1
  O  O971  1  0.57669000  0.12246000  0.03505000  1
  O  O972  1  0.45777000  0.87384000  0.92637000  1
  O  O973  1  0.94747000  0.87384000  0.41607000  1
  O  O974  1  0.00484000  0.05751000  0.50235000  1
  O  O975  1  0.55516000  0.05751000  0.05267000  1
  O  O976  1  0.49751000  0.05267000  0.99516000  1
  O  O977  1  0.05751000  0.05267000  0.55516000  1
  O  O978  1  0.94249000  0.94733000  0.44484000  1
  O  O979  1  0.50249000  0.94733000  0.00484000  1
  O  O980  1  0.44484000  0.94249000  0.94733000  1
  O  O981  1  0.99516000  0.94249000  0.49765000  1
  O  O982  1  0.05253000  0.12616000  0.58393000  1
  O  O983  1  0.54223000  0.12616000  0.07363000  1
  O  O984  1  0.42331000  0.87754000  0.96495000  1
  O  O985  1  0.91259000  0.87754000  0.45423000  1
  O  O986  1  0.41551000  0.03823000  0.95750000  1
  O  O987  1  0.08073000  0.03823000  0.62272000  1
  O  O988  1  0.92637000  0.05253000  0.46860000  1
  O  O989  1  0.58393000  0.05253000  0.12616000  1
  O  O990  1  0.87754000  0.96495000  0.42331000  1
  O  O991  1  0.54164000  0.96495000  0.08741000  1
  O  O992  1  0.37330000  0.94985000  0.91977000  1
  O  O993  1  0.03008000  0.94985000  0.57655000  1
  O  O994  1  0.94733000  0.00484000  0.50249000  1
  O  O995  1  0.50235000  0.00484000  0.05751000  1
  O  O996  1  0.00000000  0.00000000  0.55534000  1
  O  O997  1  0.44466000  0.00000000  0.00000000  1
  O  O998  1  0.05015000  0.08023000  0.62670000  1
  O  O999  1  0.45353000  0.08023000  0.03008000  1
  O  O1000  1  0.96495000  0.08741000  0.54164000  1
  O  O1001  1  0.54577000  0.08741000  0.12246000  1
  O  O1002  1  0.87384000  0.92637000  0.45777000  1
  O  O1003  1  0.46860000  0.92637000  0.05253000  1
  O  O1004  1  0.37728000  0.91927000  0.96177000  1
  O  O1005  1  0.95750000  0.91927000  0.54199000  1
  O  O1006  1  0.96177000  0.04250000  0.58449000  1
  O  O1007  1  0.45801000  0.04250000  0.08073000  1
  O  O1008  1  0.91977000  0.96992000  0.54647000  1
  O  O1009  1  0.42345000  0.96992000  0.05015000  1
  O  O1010  1  0.05253000  0.46860000  0.92637000  1
  O  O1011  1  0.54223000  0.46860000  0.41607000  1
  O  O1012  1  0.08741000  0.54164000  0.96495000  1
  O  O1013  1  0.57669000  0.54164000  0.45423000  1
  O  O1014  1  0.96495000  0.42331000  0.87754000  1
  O  O1015  1  0.54577000  0.42331000  0.45836000  1
  O  O1016  1  0.04250000  0.58449000  0.96177000  1
  O  O1017  1  0.62272000  0.58449000  0.54199000  1
  O  O1018  1  0.05015000  0.42345000  0.96992000  1
  O  O1019  1  0.45353000  0.42345000  0.37330000  1
  O  O1020  1  0.53140000  0.58393000  0.45777000  1
  O  O1021  1  0.12616000  0.58393000  0.05253000  1
  O  O1022  1  0.00484000  0.50249000  0.94733000  1
  O  O1023  1  0.55516000  0.50249000  0.49765000  1
  O  O1024  1  0.49751000  0.50235000  0.44484000  1
  O  O1025  1  0.05751000  0.50235000  0.00484000  1
  O  O1026  1  0.92637000  0.45777000  0.87384000  1
  O  O1027  1  0.58393000  0.45777000  0.53140000  1
  O  O1028  1  0.96992000  0.54647000  0.91977000  1
  O  O1029  1  0.62670000  0.54647000  0.57655000  1
  O  O1030  1  0.96177000  0.37728000  0.91927000  1
  O  O1031  1  0.45801000  0.37728000  0.41551000  1
  O  O1032  1  0.41551000  0.45801000  0.37728000  1
  O  O1033  1  0.08073000  0.45801000  0.04250000  1
  O  O1034  1  0.45836000  0.54577000  0.42331000  1
  O  O1035  1  0.12246000  0.54577000  0.08741000  1
  O  O1036  1  0.57655000  0.62670000  0.54647000  1
  O  O1037  1  0.08023000  0.62670000  0.05015000  1
  O  O1038  1  0.94733000  0.44484000  0.94249000  1
  O  O1039  1  0.50235000  0.44484000  0.49751000  1
