# generated using pymatgen
data_PrH27(C11O2)3
_symmetry_space_group_name_H-M   'P 1'
_cell_length_a   9.84320000
_cell_length_b   10.04080000
_cell_length_c   18.04530000
_cell_angle_alpha   90.13500000
_cell_angle_beta   93.96300000
_cell_angle_gamma   113.87200000
_symmetry_Int_Tables_number   1
_chemical_formula_structural   PrH27(C11O2)3
_chemical_formula_sum   'Pr2 H54 C66 O12'
_cell_volume   1626.10951527
_cell_formula_units_Z   2
loop_
 _symmetry_equiv_pos_site_id
 _symmetry_equiv_pos_as_xyz
  1  'x, y, z'
loop_
 _atom_site_type_symbol
 _atom_site_label
 _atom_site_symmetry_multiplicity
 _atom_site_fract_x
 _atom_site_fract_y
 _atom_site_fract_z
 _atom_site_occupancy
  Pr  Pr0  1  0.00715000  0.27666000  0.99681000  1
  Pr  Pr1  1  0.99285000  0.72334000  0.00319000  1
  H  H2  1  0.02230000  0.80950000  0.20720000  1
  H  H3  1  0.05260000  0.73270000  0.80100000  1
  H  H4  1  0.07860000  0.79750000  0.33180000  1
  H  H5  1  0.09510000  0.81770000  0.68480000  1
  H  H6  1  0.12610000  0.67740000  0.53650000  1
  H  H7  1  0.13100000  0.56260000  0.44310000  1
  H  H8  1  0.15710000  0.99450000  0.46770000  1
  H  H9  1  0.16360000  0.46510000  0.50340000  1
  H  H10  1  0.18490000  0.09280000  0.56320000  1
  H  H11  1  0.19330000  0.24490000  0.53770000  1
  H  H12  1  0.19820000  0.42470000  0.75170000  1
  H  H13  1  0.19860000  0.24450000  0.22840000  1
  H  H14  1  0.20900000  0.83560000  0.57070000  1
  H  H15  1  0.21320000  0.46400000  0.42270000  1
  H  H16  1  0.23030000  0.72380000  0.21730000  1
  H  H17  1  0.24800000  0.90950000  0.44040000  1
  H  H18  1  0.24900000  0.51830000  0.63790000  1
  H  H19  1  0.26070000  0.23260000  0.35310000  1
  H  H20  1  0.27570000  0.23290000  0.61320000  1
  H  H21  1  0.32500000  0.71130000  0.33740000  1
  H  H22  1  0.40710000  0.45330000  0.14560000  1
  H  H23  1  0.41100000  0.95670000  0.36790000  1
  H  H24  1  0.41560000  0.46040000  0.40860000  1
  H  H25  1  0.42000000  0.00620000  0.61160000  1
  H  H26  1  0.42180000  0.43620000  0.60710000  1
  H  H27  1  0.46650000  0.91680000  0.67160000  1
  H  H28  1  0.49090000  0.54680000  0.73540000  1
  H  H29  1  0.50910000  0.45320000  0.26460000  1
  H  H30  1  0.53350000  0.08320000  0.32840000  1
  H  H31  1  0.57820000  0.56380000  0.39290000  1
  H  H32  1  0.58000000  0.99380000  0.38840000  1
  H  H33  1  0.58440000  0.53960000  0.59140000  1
  H  H34  1  0.58900000  0.04330000  0.63210000  1
  H  H35  1  0.59290000  0.54670000  0.85440000  1
  H  H36  1  0.67500000  0.28870000  0.66260000  1
  H  H37  1  0.72430000  0.76710000  0.38680000  1
  H  H38  1  0.73930000  0.76740000  0.64690000  1
  H  H39  1  0.75100000  0.48170000  0.36210000  1
  H  H40  1  0.75200000  0.09050000  0.55960000  1
  H  H41  1  0.76970000  0.27620000  0.78270000  1
  H  H42  1  0.78680000  0.53600000  0.57730000  1
  H  H43  1  0.79100000  0.16440000  0.42930000  1
  H  H44  1  0.80140000  0.75550000  0.77160000  1
  H  H45  1  0.80180000  0.57530000  0.24830000  1
  H  H46  1  0.80670000  0.75510000  0.46230000  1
  H  H47  1  0.81510000  0.90720000  0.43680000  1
  H  H48  1  0.83640000  0.53490000  0.49660000  1
  H  H49  1  0.84290000  0.00550000  0.53230000  1
  H  H50  1  0.86900000  0.43740000  0.55690000  1
  H  H51  1  0.87390000  0.32260000  0.46350000  1
  H  H52  1  0.90490000  0.18230000  0.31520000  1
  H  H53  1  0.92140000  0.20250000  0.66820000  1
  H  H54  1  0.94740000  0.26730000  0.19900000  1
  H  H55  1  0.97770000  0.19050000  0.79280000  1
  C  C56  1  0.06940000  0.89460000  0.23630000  1
  C  C57  1  0.07720000  0.04240000  0.12300000  1
  C  C58  1  0.09300000  0.68900000  0.76830000  1
  C  C59  1  0.09930000  0.51740000  0.86760000  1
  C  C60  1  0.10390000  0.03040000  0.20500000  1
  C  C61  1  0.10600000  0.88800000  0.31090000  1
  C  C62  1  0.11900000  0.74000000  0.69880000  1
  C  C63  1  0.12570000  0.57100000  0.79130000  1
  C  C64  1  0.17500000  0.15390000  0.24920000  1
  C  C65  1  0.18100000  0.50700000  0.73930000  1
  C  C66  1  0.18100000  0.68000000  0.64760000  1
  C  C67  1  0.18300000  0.01210000  0.35650000  1
  C  C68  1  0.20100000  0.52300000  0.46120000  1
  C  C69  1  0.20900000  0.56200000  0.67070000  1
  C  C70  1  0.20900000  0.73900000  0.57060000  1
  C  C71  1  0.21400000  0.14700000  0.32420000  1
  C  C72  1  0.23500000  0.00000000  0.43610000  1
  C  C73  1  0.24100000  0.59070000  0.09180000  1
  C  C74  1  0.24700000  0.19500000  0.56300000  1
  C  C75  1  0.28500000  0.66780000  0.22650000  1
  C  C76  1  0.30990000  0.59210000  0.16900000  1
  C  C77  1  0.34200000  0.65970000  0.29890000  1
  C  C78  1  0.35100000  0.64810000  0.48430000  1
  C  C79  1  0.35300000  0.74800000  0.54110000  1
  C  C80  1  0.38200000  0.12700000  0.46510000  1
  C  C81  1  0.38400000  0.21800000  0.52360000  1
  C  C82  1  0.39200000  0.50700000  0.18370000  1
  C  C83  1  0.42300000  0.57800000  0.31440000  1
  C  C84  1  0.45000000  0.50500000  0.25550000  1
  C  C85  1  0.47800000  0.55800000  0.39410000  1
  C  C86  1  0.47800000  0.66400000  0.45370000  1
  C  C87  1  0.48800000  0.85930000  0.56560000  1
  C  C88  1  0.49100000  0.96600000  0.62570000  1
  C  C89  1  0.50900000  0.03400000  0.37430000  1
  C  C90  1  0.51200000  0.14070000  0.43440000  1
  C  C91  1  0.52200000  0.33600000  0.54630000  1
  C  C92  1  0.52200000  0.44200000  0.60590000  1
  C  C93  1  0.55000000  0.49500000  0.74450000  1
  C  C94  1  0.57700000  0.42200000  0.68560000  1
  C  C95  1  0.60800000  0.49300000  0.81630000  1
  C  C96  1  0.61600000  0.78200000  0.47640000  1
  C  C97  1  0.61800000  0.87300000  0.53490000  1
  C  C98  1  0.64700000  0.25200000  0.45890000  1
  C  C99  1  0.64900000  0.35190000  0.51570000  1
  C  C100  1  0.65800000  0.34030000  0.70110000  1
  C  C101  1  0.69010000  0.40790000  0.83100000  1
  C  C102  1  0.71500000  0.33220000  0.77350000  1
  C  C103  1  0.75300000  0.80500000  0.43700000  1
  C  C104  1  0.75900000  0.40930000  0.90820000  1
  C  C105  1  0.76500000  0.00000000  0.56390000  1
  C  C106  1  0.78600000  0.85300000  0.67580000  1
  C  C107  1  0.79100000  0.26100000  0.42940000  1
  C  C108  1  0.79100000  0.43800000  0.32930000  1
  C  C109  1  0.79900000  0.47700000  0.53880000  1
  C  C110  1  0.81700000  0.98790000  0.64350000  1
  C  C111  1  0.81900000  0.32000000  0.35240000  1
  C  C112  1  0.81900000  0.49300000  0.26070000  1
  C  C113  1  0.82500000  0.84610000  0.75080000  1
  C  C114  1  0.87430000  0.42900000  0.20870000  1
  C  C115  1  0.88100000  0.26000000  0.30120000  1
  C  C116  1  0.89400000  0.11200000  0.68910000  1
  C  C117  1  0.89610000  0.96960000  0.79500000  1
  C  C118  1  0.90070000  0.48260000  0.13240000  1
  C  C119  1  0.90700000  0.31100000  0.23170000  1
  C  C120  1  0.92280000  0.95760000  0.87700000  1
  C  C121  1  0.93060000  0.10540000  0.76370000  1
  O  O122  1  0.05960000  0.93840000  0.08190000  1
  O  O123  1  0.06070000  0.58800000  0.91410000  1
  O  O124  1  0.07290000  0.16080000  0.10230000  1
  O  O125  1  0.11240000  0.40080000  0.88370000  1
  O  O126  1  0.19600000  0.69080000  0.07760000  1
  O  O127  1  0.22960000  0.48920000  0.04590000  1
  O  O128  1  0.77040000  0.51080000  0.95410000  1
  O  O129  1  0.80400000  0.30920000  0.92240000  1
  O  O130  1  0.88760000  0.59920000  0.11630000  1
  O  O131  1  0.92710000  0.83920000  0.89770000  1
  O  O132  1  0.93930000  0.41200000  0.08590000  1
  O  O133  1  0.94040000  0.06160000  0.91810000  1
