# generated using pymatgen
data_Zn3H28C40(N3O7)2
_symmetry_space_group_name_H-M   'P 1'
_cell_length_a   13.44200000
_cell_length_b   13.59060000
_cell_length_c   14.81290000
_cell_angle_alpha   107.21500000
_cell_angle_beta   106.80600000
_cell_angle_gamma   111.02500000
_symmetry_Int_Tables_number   1
_chemical_formula_structural   Zn3H28C40(N3O7)2
_chemical_formula_sum   'Zn6 H56 C80 N12 O28'
_cell_volume   2162.65755082
_cell_formula_units_Z   2
loop_
 _symmetry_equiv_pos_site_id
 _symmetry_equiv_pos_as_xyz
  1  'x, y, z'
loop_
 _atom_site_type_symbol
 _atom_site_label
 _atom_site_symmetry_multiplicity
 _atom_site_fract_x
 _atom_site_fract_y
 _atom_site_fract_z
 _atom_site_occupancy
  Zn  Zn0  1  0.00000000  0.50000000  0.00000000  1
  Zn  Zn1  1  0.03268000  0.25972000  0.89756000  1
  Zn  Zn2  1  0.36488000  0.63784000  0.89756000  1
  Zn  Zn3  1  0.50000000  0.50000000  0.00000000  1
  Zn  Zn4  1  0.63512000  0.36216000  0.10244000  1
  Zn  Zn5  1  0.96732000  0.74028000  0.10244000  1
  H  H6  1  0.05100000  0.30630000  0.44300000  1
  H  H7  1  0.05800000  0.00510000  0.62700000  1
  H  H8  1  0.06900000  0.62190000  0.62700000  1
  H  H9  1  0.07740000  0.85640000  0.33820000  1
  H  H10  1  0.09080000  0.43350000  0.88060000  1
  H  H11  1  0.09350000  0.21220000  0.17880000  1
  H  H12  1  0.10800000  0.86330000  0.55700000  1
  H  H13  1  0.11250000  0.59990000  0.24580000  1
  H  H14  1  0.21920000  0.90080000  0.14920000  1
  H  H15  1  0.23920000  0.51820000  0.66180000  1
  H  H16  1  0.25350000  0.99190000  0.48200000  1
  H  H17  1  0.26080000  0.42480000  0.20340000  1
  H  H18  1  0.26190000  0.64620000  0.06180000  1
  H  H19  1  0.27150000  0.50990000  0.51800000  1
  H  H20  1  0.28920000  0.72820000  0.39300000  1
  H  H21  1  0.28980000  0.44710000  0.88060000  1
  H  H22  1  0.29990000  0.41560000  0.06180000  1
  H  H23  1  0.32250000  0.50180000  0.39100000  1
  H  H24  1  0.36670000  0.35410000  0.75420000  1
  H  H25  1  0.38750000  0.25370000  0.28860000  1
  H  H26  1  0.39620000  0.33520000  0.60700000  1
  H  H27  1  0.40110000  0.03490000  0.28860000  1
  H  H28  1  0.41470000  0.03340000  0.82120000  1
  H  H29  1  0.43000000  0.24840000  0.14920000  1
  H  H30  1  0.43150000  0.11080000  0.60900000  1
  H  H31  1  0.44260000  0.77860000  0.20340000  1
  H  H32  1  0.44680000  0.32780000  0.47700000  1
  H  H33  1  0.46980000  0.85080000  0.52300000  1
  H  H34  1  0.53020000  0.14920000  0.47700000  1
  H  H35  1  0.55320000  0.67220000  0.52300000  1
  H  H36  1  0.55740000  0.22140000  0.79660000  1
  H  H37  1  0.56850000  0.88920000  0.39100000  1
  H  H38  1  0.57000000  0.75160000  0.85080000  1
  H  H39  1  0.58530000  0.96660000  0.17880000  1
  H  H40  1  0.59890000  0.96510000  0.71140000  1
  H  H41  1  0.60380000  0.66480000  0.39300000  1
  H  H42  1  0.61250000  0.74630000  0.71140000  1
  H  H43  1  0.63330000  0.64590000  0.24580000  1
  H  H44  1  0.67750000  0.49820000  0.60900000  1
  H  H45  1  0.70010000  0.58440000  0.93820000  1
  H  H46  1  0.71020000  0.55290000  0.11940000  1
  H  H47  1  0.71080000  0.27180000  0.60700000  1
  H  H48  1  0.72850000  0.49010000  0.48200000  1
  H  H49  1  0.73810000  0.35380000  0.93820000  1
  H  H50  1  0.73920000  0.57520000  0.79660000  1
  H  H51  1  0.74650000  0.00810000  0.51800000  1
  H  H52  1  0.76080000  0.48180000  0.33820000  1
  H  H53  1  0.78080000  0.09920000  0.85080000  1
  H  H54  1  0.88750000  0.40010000  0.75420000  1
  H  H55  1  0.89200000  0.13670000  0.44300000  1
  H  H56  1  0.90650000  0.78780000  0.82120000  1
  H  H57  1  0.90920000  0.56650000  0.11940000  1
  H  H58  1  0.92260000  0.14360000  0.66180000  1
  H  H59  1  0.93100000  0.37810000  0.37300000  1
  H  H60  1  0.94200000  0.99490000  0.37300000  1
  H  H61  1  0.94900000  0.69370000  0.55700000  1
  C  C62  1  0.00682000  0.70650000  0.82316000  1
  C  C63  1  0.01647000  0.69917000  0.92450000  1
  C  C64  1  0.03518000  0.30228000  0.37620000  1
  C  C65  1  0.03600000  0.65470000  0.66594000  1
  C  C66  1  0.05891000  0.65968000  0.76576000  1
  C  C67  1  0.06177000  0.24711000  0.21766000  1
  C  C68  1  0.08196000  0.25346000  0.31642000  1
  C  C69  1  0.12994000  0.01124000  0.66594000  1
  C  C70  1  0.14137000  0.61409000  0.80616000  1
  C  C71  1  0.14354000  0.89314000  0.32808000  1
  C  C72  1  0.15898000  0.92608000  0.62380000  1
  C  C73  1  0.16479000  0.19207000  0.80616000  1
  C  C74  1  0.18011000  0.63594000  0.23738000  1
  C  C75  1  0.20685000  0.10608000  0.76576000  1
  C  C76  1  0.22645000  0.91845000  0.21724000  1
  C  C77  1  0.24937000  0.97397000  0.41494000  1
  C  C78  1  0.26554000  0.93704000  0.68358000  1
  C  C79  1  0.26760000  0.66340000  0.12932000  1
  C  C80  1  0.28619000  0.71366000  0.32664000  1
  C  C81  1  0.31546000  0.56506000  0.67192000  1
  C  C82  1  0.31634000  0.11666000  0.82316000  1
  C  C83  1  0.33443000  0.55903000  0.58506000  1
  C  C84  1  0.33642000  0.99982000  0.30094000  1
  C  C85  1  0.33747000  0.47127000  0.21428000  1
  C  C86  1  0.34411000  0.02945000  0.78234000  1
  C  C87  1  0.35068000  0.02940000  0.40328000  1
  C  C88  1  0.36172000  0.46592000  0.12932000  1
  C  C89  1  0.37681000  0.74301000  0.21428000  1
  C  C90  1  0.38900000  0.77030000  0.31642000  1
  C  C91  1  0.40009000  0.55189000  0.40638000  1
  C  C92  1  0.40803000  0.22533000  0.92450000  1
  C  C93  1  0.42742000  0.54612000  0.31642000  1
  C  C94  1  0.44273000  0.39856000  0.76262000  1
  C  C95  1  0.44740000  0.62612000  0.59672000  1
  C  C96  1  0.45955000  0.38702000  0.67336000  1
  C  C97  1  0.46452000  0.30112000  0.30094000  1
  C  C98  1  0.46818000  0.11426000  0.49260000  1
  C  C99  1  0.47558000  0.62166000  0.50740000  1
  C  C100  1  0.49079000  0.29879000  0.21724000  1
  C  C101  1  0.49371000  0.14551000  0.59362000  1
  C  C102  1  0.50629000  0.85449000  0.40638000  1
  C  C103  1  0.50921000  0.70121000  0.78276000  1
  C  C104  1  0.52442000  0.37834000  0.49260000  1
  C  C105  1  0.53182000  0.88574000  0.50740000  1
  C  C106  1  0.53548000  0.69888000  0.69906000  1
  C  C107  1  0.54045000  0.61298000  0.32664000  1
  C  C108  1  0.55260000  0.37388000  0.40328000  1
  C  C109  1  0.55727000  0.60144000  0.23738000  1
  C  C110  1  0.57258000  0.45388000  0.68358000  1
  C  C111  1  0.59197000  0.77467000  0.07550000  1
  C  C112  1  0.59991000  0.44811000  0.59362000  1
  C  C113  1  0.61100000  0.22970000  0.68358000  1
  C  C114  1  0.62319000  0.25699000  0.78572000  1
  C  C115  1  0.63828000  0.53408000  0.87068000  1
  C  C116  1  0.64932000  0.97060000  0.59672000  1
  C  C117  1  0.65589000  0.97055000  0.21766000  1
  C  C118  1  0.66253000  0.52873000  0.78572000  1
  C  C119  1  0.66358000  0.00018000  0.69906000  1
  C  C120  1  0.66557000  0.44097000  0.41494000  1
  C  C121  1  0.68366000  0.88334000  0.17684000  1
  C  C122  1  0.68454000  0.43494000  0.32808000  1
  C  C123  1  0.71381000  0.28634000  0.67336000  1
  C  C124  1  0.73240000  0.33660000  0.87068000  1
  C  C125  1  0.73446000  0.06296000  0.31642000  1
  C  C126  1  0.75063000  0.02603000  0.58506000  1
  C  C127  1  0.77355000  0.08155000  0.78276000  1
  C  C128  1  0.79315000  0.89392000  0.23424000  1
  C  C129  1  0.81989000  0.36406000  0.76262000  1
  C  C130  1  0.83521000  0.80793000  0.19384000  1
  C  C131  1  0.84102000  0.07392000  0.37620000  1
  C  C132  1  0.85646000  0.10686000  0.67192000  1
  C  C133  1  0.85863000  0.38591000  0.19384000  1
  C  C134  1  0.87006000  0.98876000  0.33406000  1
  C  C135  1  0.91804000  0.74654000  0.68358000  1
  C  C136  1  0.93823000  0.75289000  0.78234000  1
  C  C137  1  0.94109000  0.34032000  0.23424000  1
  C  C138  1  0.96400000  0.34530000  0.33406000  1
  C  C139  1  0.96482000  0.69772000  0.62380000  1
  C  C140  1  0.98353000  0.30083000  0.07550000  1
  C  C141  1  0.99318000  0.29350000  0.17684000  1
  N  N142  1  0.13017000  0.86394000  0.22884000  1
  N  N143  1  0.15746000  0.20686000  0.36012000  1
  N  N144  1  0.16933000  0.60968000  0.13954000  1
  N  N145  1  0.29734000  0.84674000  0.63988000  1
  N  N146  1  0.40133000  0.63510000  0.77116000  1
  N  N147  1  0.47021000  0.52986000  0.13954000  1
  N  N148  1  0.52979000  0.47014000  0.86046000  1
  N  N149  1  0.59867000  0.36490000  0.22884000  1
  N  N150  1  0.70266000  0.15326000  0.36012000  1
  N  N151  1  0.83067000  0.39032000  0.86046000  1
  N  N152  1  0.84254000  0.79314000  0.63988000  1
  N  N153  1  0.86983000  0.13606000  0.77116000  1
  O  O154  1  0.01730000  0.24089000  0.02110000  1
  O  O155  1  0.05328000  0.63352000  0.94546000  1
  O  O156  1  0.07479000  0.41783000  0.92670000  1
  O  O157  1  0.10629000  0.50759000  0.76532000  1
  O  O158  1  0.12911000  0.18220000  0.87514000  1
  O  O159  1  0.15903000  0.25773000  0.76532000  1
  O  O160  1  0.17636000  0.21416000  0.44712000  1
  O  O161  1  0.19713000  0.16296000  0.30652000  1
  O  O162  1  0.22924000  0.76704000  0.55288000  1
  O  O163  1  0.24603000  0.69294000  0.87514000  1
  O  O164  1  0.35191000  0.50887000  0.92670000  1
  O  O165  1  0.39061000  0.85644000  0.69348000  1
  O  O166  1  0.39218000  0.31194000  0.94546000  1
  O  O167  1  0.49620000  0.21979000  0.97890000  1
  O  O168  1  0.50380000  0.78021000  0.02110000  1
  O  O169  1  0.60782000  0.68806000  0.05454000  1
  O  O170  1  0.60939000  0.14356000  0.30652000  1
  O  O171  1  0.64809000  0.49113000  0.07330000  1
  O  O172  1  0.75397000  0.30706000  0.12486000  1
  O  O173  1  0.77076000  0.23296000  0.44712000  1
  O  O174  1  0.80287000  0.83704000  0.69348000  1
  O  O175  1  0.82364000  0.78584000  0.55288000  1
  O  O176  1  0.84097000  0.74227000  0.23468000  1
  O  O177  1  0.87089000  0.81780000  0.12486000  1
  O  O178  1  0.89371000  0.49241000  0.23468000  1
  O  O179  1  0.92521000  0.58217000  0.07330000  1
  O  O180  1  0.94672000  0.36648000  0.05454000  1
  O  O181  1  0.98270000  0.75911000  0.97890000  1
