# generated using pymatgen
data_GdH11(C11O4)2
_symmetry_space_group_name_H-M   'P 1'
_cell_length_a   6.43550000
_cell_length_b   13.46200000
_cell_length_c   13.75300000
_cell_angle_alpha   61.53200000
_cell_angle_beta   82.43300000
_cell_angle_gamma   81.24400000
_symmetry_Int_Tables_number   1
_chemical_formula_structural   GdH11(C11O4)2
_chemical_formula_sum   'Gd2 H22 C44 O16'
_cell_volume   1032.80987266
_cell_formula_units_Z   2
loop_
 _symmetry_equiv_pos_site_id
 _symmetry_equiv_pos_as_xyz
  1  'x, y, z'
loop_
 _atom_site_type_symbol
 _atom_site_label
 _atom_site_symmetry_multiplicity
 _atom_site_fract_x
 _atom_site_fract_y
 _atom_site_fract_z
 _atom_site_occupancy
  Gd  Gd0  1  0.42150000  0.54903000  0.17071000  1
  Gd  Gd1  1  0.57850000  0.45097000  0.82929000  1
  H  H2  1  0.07160000  0.28340000  0.73580000  1
  H  H3  1  0.09250000  0.80390000  0.99600000  1
  H  H4  1  0.10810000  0.19240000  0.43190000  1
  H  H5  1  0.10880000  0.61420000  0.78680000  1
  H  H6  1  0.11380000  0.86040000  0.24380000  1
  H  H7  1  0.14730000  0.03350000  0.60400000  1
  H  H8  1  0.34580000  0.15680000  0.26140000  1
  H  H9  1  0.36280000  0.90890000  0.91070000  1
  H  H10  1  0.45630000  0.94800000  0.10390000  1
  H  H11  1  0.47890000  0.95060000  0.33390000  1
  H  H12  1  0.47980000  0.20930000  0.49740000  1
  H  H13  1  0.52020000  0.79070000  0.50260000  1
  H  H14  1  0.52110000  0.04940000  0.66610000  1
  H  H15  1  0.54370000  0.05200000  0.89610000  1
  H  H16  1  0.63720000  0.09110000  0.08930000  1
  H  H17  1  0.65420000  0.84320000  0.73860000  1
  H  H18  1  0.85270000  0.96650000  0.39600000  1
  H  H19  1  0.88620000  0.13960000  0.75620000  1
  H  H20  1  0.89120000  0.38580000  0.21320000  1
  H  H21  1  0.89190000  0.80760000  0.56810000  1
  H  H22  1  0.90750000  0.19610000  0.00400000  1
  H  H23  1  0.92840000  0.71660000  0.26420000  1
  C  C24  1  0.00210000  0.81280000  0.94430000  1
  C  C25  1  0.00970000  0.83540000  0.52060000  1
  C  C26  1  0.01110000  0.08470000  0.15400000  1
  C  C27  1  0.01340000  0.06900000  0.58250000  1
  C  C28  1  0.01970000  0.12210000  0.78270000  1
  C  C29  1  0.08010000  0.38430000  0.92650000  1
  C  C30  1  0.10740000  0.00990000  0.83310000  1
  C  C31  1  0.11380000  0.27650000  0.03150000  1
  C  C32  1  0.13000000  0.20820000  0.77150000  1
  C  C33  1  0.14060000  0.07510000  0.23440000  1
  C  C34  1  0.15950000  0.97280000  0.34790000  1
  C  C35  1  0.21050000  0.78160000  0.55190000  1
  C  C36  1  0.24020000  0.67640000  0.65860000  1
  C  C37  1  0.25200000  0.26310000  0.10860000  1
  C  C38  1  0.25880000  0.16410000  0.20900000  1
  C  C39  1  0.30400000  0.98400000  0.87580000  1
  C  C40  1  0.32660000  0.18330000  0.81320000  1
  C  C41  1  0.36110000  0.92080000  0.38050000  1
  C  C42  1  0.38590000  0.82560000  0.48150000  1
  C  C43  1  0.39880000  0.34920000  0.09050000  1
  C  C44  1  0.41300000  0.06990000  0.86670000  1
  C  C45  1  0.44240000  0.27590000  0.80440000  1
  C  C46  1  0.55760000  0.72410000  0.19560000  1
  C  C47  1  0.58700000  0.93010000  0.13330000  1
  C  C48  1  0.60120000  0.65080000  0.90950000  1
  C  C49  1  0.61410000  0.17440000  0.51850000  1
  C  C50  1  0.63890000  0.07920000  0.61950000  1
  C  C51  1  0.67340000  0.81670000  0.18680000  1
  C  C52  1  0.69600000  0.01600000  0.12420000  1
  C  C53  1  0.74120000  0.83590000  0.79100000  1
  C  C54  1  0.74800000  0.73690000  0.89140000  1
  C  C55  1  0.75980000  0.32360000  0.34140000  1
  C  C56  1  0.78950000  0.21840000  0.44810000  1
  C  C57  1  0.84050000  0.02720000  0.65210000  1
  C  C58  1  0.85940000  0.92490000  0.76560000  1
  C  C59  1  0.87000000  0.79180000  0.22850000  1
  C  C60  1  0.88620000  0.72350000  0.96850000  1
  C  C61  1  0.89260000  0.99010000  0.16690000  1
  C  C62  1  0.91990000  0.61570000  0.07350000  1
  C  C63  1  0.98030000  0.87790000  0.21730000  1
  C  C64  1  0.98660000  0.93100000  0.41750000  1
  C  C65  1  0.98890000  0.91530000  0.84600000  1
  C  C66  1  0.99030000  0.16460000  0.47940000  1
  C  C67  1  0.99790000  0.18720000  0.05570000  1
  O  O68  1  0.07270000  0.64870000  0.72450000  1
  O  O69  1  0.07280000  0.60170000  0.12754000  1
  O  O70  1  0.20730000  0.45953000  0.89464000  1
  O  O71  1  0.36360000  0.39440000  0.15310000  1
  O  O72  1  0.39070000  0.37840000  0.73430000  1
  O  O73  1  0.41240000  0.61950000  0.67880000  1
  O  O74  1  0.41760000  0.74690000  0.13050000  1
  O  O75  1  0.44710000  0.63600000  0.97889000  1
  O  O76  1  0.55290000  0.36400000  0.02111000  1
  O  O77  1  0.58240000  0.25310000  0.86950000  1
  O  O78  1  0.58760000  0.38050000  0.32120000  1
  O  O79  1  0.60930000  0.62160000  0.26570000  1
  O  O80  1  0.63640000  0.60560000  0.84690000  1
  O  O81  1  0.79270000  0.54047000  0.10536000  1
  O  O82  1  0.92720000  0.39830000  0.87246000  1
  O  O83  1  0.92730000  0.35130000  0.27550000  1
