# generated using pymatgen
data_CdH10(C5N3)2
_symmetry_space_group_name_H-M   'P 1'
_cell_length_a   32.74685666
_cell_length_b   32.74650000
_cell_length_c   32.74650000
_cell_angle_alpha   109.47100000
_cell_angle_beta   109.47144127
_cell_angle_gamma   109.47144127
_symmetry_Int_Tables_number   1
_chemical_formula_structural   CdH10(C5N3)2
_chemical_formula_sum   'Cd48 H480 C480 N288'
_cell_volume   27031.88448730
_cell_formula_units_Z   48
loop_
 _symmetry_equiv_pos_site_id
 _symmetry_equiv_pos_as_xyz
  1  'x, y, z'
loop_
 _atom_site_type_symbol
 _atom_site_label
 _atom_site_symmetry_multiplicity
 _atom_site_fract_x
 _atom_site_fract_y
 _atom_site_fract_z
 _atom_site_occupancy
  Cd  Cd0  1  0.58663000  0.72727000  0.63941000  1
  Cd  Cd1  1  0.86059000  0.77273000  0.91337000  1
  Cd  Cd2  1  0.77273000  0.91214000  0.85936000  1
  Cd  Cd3  1  0.64064000  0.58786000  0.72727000  1
  Cd  Cd4  1  0.55278000  0.91337000  0.64064000  1
  Cd  Cd5  1  0.85936000  0.58663000  0.94722000  1
  Cd  Cd6  1  0.94722000  0.35936000  0.08663000  1
  Cd  Cd7  1  0.41337000  0.14064000  0.55278000  1
  Cd  Cd8  1  0.91214000  0.13941000  0.05278000  1
  Cd  Cd9  1  0.44722000  0.36059000  0.58786000  1
  Cd  Cd10  1  0.35936000  0.94722000  0.58663000  1
  Cd  Cd11  1  0.91337000  0.55278000  0.14064000  1
  Cd  Cd12  1  0.58786000  0.94722000  0.86059000  1
  Cd  Cd13  1  0.63941000  0.55278000  0.91214000  1
  Cd  Cd14  1  0.91337000  0.36059000  0.27273000  1
  Cd  Cd15  1  0.22727000  0.13941000  0.58663000  1
  Cd  Cd16  1  0.72727000  0.14064000  0.08786000  1
  Cd  Cd17  1  0.41214000  0.35936000  0.77273000  1
  Cd  Cd18  1  0.36059000  0.91337000  0.77273000  1
  Cd  Cd19  1  0.72727000  0.58663000  0.13941000  1
  Cd  Cd20  1  0.94722000  0.58786000  0.36059000  1
  Cd  Cd21  1  0.13941000  0.91214000  0.55278000  1
  Cd  Cd22  1  0.14064000  0.72727000  0.58786000  1
  Cd  Cd23  1  0.91214000  0.77273000  0.35936000  1
  Cd  Cd24  1  0.08786000  0.22727000  0.64064000  1
  Cd  Cd25  1  0.85936000  0.27273000  0.41214000  1
  Cd  Cd26  1  0.86059000  0.08786000  0.44722000  1
  Cd  Cd27  1  0.05278000  0.41214000  0.63941000  1
  Cd  Cd28  1  0.27273000  0.41337000  0.86059000  1
  Cd  Cd29  1  0.63941000  0.08663000  0.22727000  1
  Cd  Cd30  1  0.58786000  0.64064000  0.22727000  1
  Cd  Cd31  1  0.27273000  0.85936000  0.91214000  1
  Cd  Cd32  1  0.77273000  0.86059000  0.41337000  1
  Cd  Cd33  1  0.08663000  0.63941000  0.72727000  1
  Cd  Cd34  1  0.36059000  0.44722000  0.08786000  1
  Cd  Cd35  1  0.41214000  0.05278000  0.13941000  1
  Cd  Cd36  1  0.08663000  0.44722000  0.85936000  1
  Cd  Cd37  1  0.64064000  0.05278000  0.41337000  1
  Cd  Cd38  1  0.55278000  0.63941000  0.41214000  1
  Cd  Cd39  1  0.08786000  0.86059000  0.94722000  1
  Cd  Cd40  1  0.58663000  0.85936000  0.44722000  1
  Cd  Cd41  1  0.05278000  0.64064000  0.91337000  1
  Cd  Cd42  1  0.14064000  0.41337000  0.05278000  1
  Cd  Cd43  1  0.44722000  0.08663000  0.35936000  1
  Cd  Cd44  1  0.35936000  0.41214000  0.27273000  1
  Cd  Cd45  1  0.22727000  0.08786000  0.14064000  1
  Cd  Cd46  1  0.13941000  0.22727000  0.08663000  1
  Cd  Cd47  1  0.41337000  0.27273000  0.36059000  1
  H  H48  1  0.81380000  0.82950000  0.81570000  1
  H  H49  1  0.68430000  0.67050000  0.68620000  1
  H  H50  1  0.03760000  0.24050000  0.04490000  1
  H  H51  1  0.45510000  0.25950000  0.46240000  1
  H  H52  1  0.15120000  0.52860000  0.16300000  1
  H  H53  1  0.33700000  0.97140000  0.34880000  1
  H  H54  1  0.50190000  0.68620000  0.51570000  1
  H  H55  1  0.98430000  0.81380000  0.99810000  1
  H  H56  1  0.64280000  0.84110000  0.65730000  1
  H  H57  1  0.84270000  0.65890000  0.85720000  1
  H  H58  1  0.98620000  0.31570000  0.00190000  1
  H  H59  1  0.49810000  0.18430000  0.51380000  1
  H  H60  1  0.62910000  0.87930000  0.64640000  1
  H  H61  1  0.85360000  0.62070000  0.87090000  1
  H  H62  1  0.51940000  0.81860000  0.53840000  1
  H  H63  1  0.96160000  0.68140000  0.98060000  1
  H  H64  1  0.68140000  0.71980000  0.70080000  1
  H  H65  1  0.79920000  0.78020000  0.81860000  1
  H  H66  1  0.34880000  0.51180000  0.37740000  1
  H  H67  1  0.12260000  0.98820000  0.15120000  1
  H  H68  1  0.92040000  0.09330000  0.95070000  1
  H  H69  1  0.54930000  0.40670000  0.57960000  1
  H  H70  1  0.00730000  0.30440000  0.04490000  1
  H  H71  1  0.45510000  0.19560000  0.49270000  1
  H  H72  1  0.98100000  0.20080000  0.01940000  1
  H  H73  1  0.48060000  0.29920000  0.51900000  1
  H  H74  1  0.16960000  0.30420000  0.20900000  1
  H  H75  1  0.29100000  0.19580000  0.33040000  1
  H  H76  1  0.69560000  0.70290000  0.74050000  1
  H  H77  1  0.75950000  0.79710000  0.80440000  1
  H  H78  1  0.09330000  0.17290000  0.14260000  1
  H  H79  1  0.35740000  0.32710000  0.40670000  1
  H  H80  1  0.64040000  0.88120000  0.69760000  1
  H  H81  1  0.80240000  0.61880000  0.85960000  1
  H  H82  1  0.22540000  0.36820000  0.29580000  1
  H  H83  1  0.20420000  0.13180000  0.27460000  1
  H  H84  1  0.85720000  0.22540000  0.92960000  1
  H  H85  1  0.57040000  0.27460000  0.64280000  1
  H  H86  1  0.45070000  0.85740000  0.53030000  1
  H  H87  1  0.96970000  0.64260000  0.04930000  1
  H  H88  1  0.04930000  0.46970000  0.14260000  1
  H  H89  1  0.35740000  0.03030000  0.45070000  1
  H  H90  1  0.86540000  0.16960000  0.96060000  1
  H  H91  1  0.53940000  0.33040000  0.63460000  1
  H  H92  1  0.68360000  0.94280000  0.80240000  1
  H  H93  1  0.69760000  0.55720000  0.81640000  1
  H  H94  1  0.73290000  0.98270000  0.85360000  1
  H  H95  1  0.64640000  0.51730000  0.76710000  1
  H  H96  1  0.34880000  0.83700000  0.47140000  1
  H  H97  1  0.02860000  0.66300000  0.15120000  1
  H  H98  1  0.62070000  0.76710000  0.74980000  1
  H  H99  1  0.75020000  0.73290000  0.87930000  1
  H  H100  1  0.64280000  0.07040000  0.77460000  1
  H  H101  1  0.72540000  0.42960000  0.85720000  1
  H  H102  1  0.83700000  0.34880000  0.97140000  1
  H  H103  1  0.52860000  0.15120000  0.66300000  1
  H  H104  1  0.46060000  0.79100000  0.59520000  1
  H  H105  1  0.90480000  0.70900000  0.03940000  1
  H  H106  1  0.61880000  0.81640000  0.75920000  1
  H  H107  1  0.74080000  0.68360000  0.88120000  1
  H  H108  1  0.53030000  0.57960000  0.67290000  1
  H  H109  1  0.82710000  0.92040000  0.96970000  1
  H  H110  1  0.65890000  0.81620000  0.80170000  1
  H  H111  1  0.42960000  0.70420000  0.57240000  1
  H  H112  1  0.92760000  0.79580000  0.07040000  1
  H  H113  1  0.69830000  0.68380000  0.84110000  1
  H  H114  1  0.98270000  0.24980000  0.12910000  1
  H  H115  1  0.37090000  0.25020000  0.51730000  1
  H  H116  1  0.33700000  0.36560000  0.48820000  1
  H  H117  1  0.01180000  0.13440000  0.16300000  1
  H  H118  1  0.98550000  0.30170000  0.14280000  1
  H  H119  1  0.35720000  0.19830000  0.51450000  1
  H  H120  1  0.68380000  0.98550000  0.84270000  1
  H  H121  1  0.65730000  0.51450000  0.81620000  1
  H  H122  1  0.86560000  0.87740000  0.02860000  1
  H  H123  1  0.47140000  0.62260000  0.63440000  1
  H  H124  1  0.03940000  0.40480000  0.20900000  1
  H  H125  1  0.29100000  0.09520000  0.46060000  1
  H  H126  1  0.51380000  0.99810000  0.68430000  1
  H  H127  1  0.81570000  0.50190000  0.98620000  1
  H  H128  1  0.46970000  0.04930000  0.64260000  1
  H  H129  1  0.85740000  0.45070000  0.03030000  1
  H  H130  1  0.78020000  0.98100000  0.96160000  1
  H  H131  1  0.53840000  0.51900000  0.71980000  1
  H  H132  1  0.55720000  0.85960000  0.74080000  1
  H  H133  1  0.75920000  0.64040000  0.94280000  1
  H  H134  1  0.51450000  0.85720000  0.69830000  1
  H  H135  1  0.80170000  0.64280000  0.98550000  1
  H  H136  1  0.82950000  0.01570000  0.01380000  1
  H  H137  1  0.48620000  0.48430000  0.67050000  1
  H  H138  1  0.99810000  0.51380000  0.18430000  1
  H  H139  1  0.31570000  0.98620000  0.50190000  1
  H  H140  1  0.79710000  0.03760000  0.99270000  1
  H  H141  1  0.50730000  0.46240000  0.70290000  1
  H  H142  1  0.63460000  0.03940000  0.83040000  1
  H  H143  1  0.66960000  0.46060000  0.86540000  1
  H  H144  1  0.94280000  0.25920000  0.14040000  1
  H  H145  1  0.35960000  0.24080000  0.55720000  1
  H  H146  1  0.81620000  0.15730000  0.01450000  1
  H  H147  1  0.48550000  0.34270000  0.68380000  1
  H  H148  1  0.98060000  0.46160000  0.18140000  1
  H  H149  1  0.31860000  0.03840000  0.51940000  1
  H  H150  1  0.49270000  0.95510000  0.69560000  1
  H  H151  1  0.80440000  0.54490000  0.00730000  1
  H  H152  1  0.07040000  0.64280000  0.27460000  1
  H  H153  1  0.22540000  0.85720000  0.42960000  1
  H  H154  1  0.59520000  0.63460000  0.80420000  1
  H  H155  1  0.69580000  0.86540000  0.90480000  1
  H  H156  1  0.46160000  0.98060000  0.68140000  1
  H  H157  1  0.81860000  0.51940000  0.03840000  1
  H  H158  1  0.07040000  0.42760000  0.29580000  1
  H  H159  1  0.20420000  0.07240000  0.42960000  1
  H  H160  1  0.51730000  0.87090000  0.75020000  1
  H  H161  1  0.74980000  0.62910000  0.98270000  1
  H  H162  1  0.95510000  0.49270000  0.19560000  1
  H  H163  1  0.30440000  0.00730000  0.54490000  1
  H  H164  1  0.81640000  0.19760000  0.05720000  1
  H  H165  1  0.44280000  0.30240000  0.68360000  1
  H  H166  1  0.87090000  0.35360000  0.12070000  1
  H  H167  1  0.37930000  0.14640000  0.62910000  1
  H  H168  1  0.76710000  0.14640000  0.01730000  1
  H  H169  1  0.48270000  0.35360000  0.73290000  1
  H  H170  1  0.85960000  0.30240000  0.11880000  1
  H  H171  1  0.38120000  0.19760000  0.64040000  1
  H  H172  1  0.70290000  0.00730000  0.96240000  1
  H  H173  1  0.53760000  0.49270000  0.79710000  1
  H  H174  1  0.35360000  0.87090000  0.62070000  1
  H  H175  1  0.87930000  0.62910000  0.14640000  1
  H  H176  1  0.35720000  0.42760000  0.63180000  1
  H  H177  1  0.86820000  0.07240000  0.14280000  1
  H  H178  1  0.51900000  0.98060000  0.79920000  1
  H  H179  1  0.70080000  0.51940000  0.98100000  1
  H  H180  1  0.03940000  0.63460000  0.33040000  1
  H  H181  1  0.16960000  0.86540000  0.46060000  1
  H  H182  1  0.57240000  0.64280000  0.86820000  1
  H  H183  1  0.63180000  0.85720000  0.92760000  1
  H  H184  1  0.46240000  0.95510000  0.75950000  1
  H  H185  1  0.74050000  0.54490000  0.03760000  1
  H  H186  1  0.71980000  0.03840000  0.01900000  1
  H  H187  1  0.48100000  0.46160000  0.78020000  1
  H  H188  1  0.85720000  0.34270000  0.15890000  1
  H  H189  1  0.34110000  0.15730000  0.64280000  1
  H  H190  1  0.88120000  0.24080000  0.18360000  1
  H  H191  1  0.31640000  0.25920000  0.61880000  1
  H  H192  1  0.40480000  0.03940000  0.70900000  1
  H  H193  1  0.79100000  0.46060000  0.09520000  1
  H  H194  1  0.95510000  0.46240000  0.25950000  1
  H  H195  1  0.24050000  0.03760000  0.54490000  1
  H  H196  1  0.67050000  0.98620000  0.98430000  1
  H  H197  1  0.51570000  0.51380000  0.82950000  1
  H  H198  1  0.99810000  0.48430000  0.31380000  1
  H  H199  1  0.18620000  0.01570000  0.50190000  1
  H  H200  1  0.34270000  0.85720000  0.65890000  1
  H  H201  1  0.84110000  0.64280000  0.15730000  1
  H  H202  1  0.30240000  0.85960000  0.61880000  1
  H  H203  1  0.88120000  0.64040000  0.19760000  1
  H  H204  1  0.98060000  0.51900000  0.29920000  1
  H  H205  1  0.20080000  0.98100000  0.51940000  1
  H  H206  1  0.57960000  0.04930000  0.90670000  1
  H  H207  1  0.59330000  0.45070000  0.92040000  1
  H  H208  1  0.48430000  0.99810000  0.81380000  1
  H  H209  1  0.68620000  0.50190000  0.01570000  1
  H  H210  1  0.36540000  0.40480000  0.69580000  1
  H  H211  1  0.80420000  0.09520000  0.13460000  1
  H  H212  1  0.15120000  0.62260000  0.48820000  1
  H  H213  1  0.01180000  0.87740000  0.34880000  1
  H  H214  1  0.85720000  0.51450000  0.19830000  1
  H  H215  1  0.30170000  0.98550000  0.64280000  1
  H  H216  1  0.84110000  0.19830000  0.18380000  1
  H  H217  1  0.31620000  0.30170000  0.65890000  1
  H  H218  1  0.12260000  0.13440000  0.47140000  1
  H  H219  1  0.02860000  0.36560000  0.37740000  1
  H  H220  1  0.87930000  0.25020000  0.23290000  1
  H  H221  1  0.26710000  0.24980000  0.62070000  1
  H  H222  1  0.27460000  0.70420000  0.63180000  1
  H  H223  1  0.15730000  0.81620000  0.51450000  1
  H  H224  1  0.98550000  0.68380000  0.34270000  1
  H  H225  1  0.86820000  0.79580000  0.22540000  1
  H  H226  1  0.04930000  0.57960000  0.40670000  1
  H  H227  1  0.09330000  0.92040000  0.45070000  1
  H  H228  1  0.19760000  0.81640000  0.55720000  1
  H  H229  1  0.94280000  0.68360000  0.30240000  1
  H  H230  1  0.33040000  0.79100000  0.69580000  1
  H  H231  1  0.80420000  0.70900000  0.16960000  1
  H  H232  1  0.62260000  0.15120000  0.98820000  1
  H  H233  1  0.51180000  0.34880000  0.87740000  1
  H  H234  1  0.42760000  0.07040000  0.79580000  1
  H  H235  1  0.70420000  0.42960000  0.07240000  1
  H  H236  1  0.14640000  0.76710000  0.51730000  1
  H  H237  1  0.98270000  0.73290000  0.35360000  1
  H  H238  1  0.63440000  0.66300000  0.01180000  1
  H  H239  1  0.48820000  0.83700000  0.86560000  1
  H  H240  1  0.87090000  0.51730000  0.25020000  1
  H  H241  1  0.24980000  0.98270000  0.62910000  1
  H  H242  1  0.25920000  0.94280000  0.64040000  1
  H  H243  1  0.85960000  0.55720000  0.24080000  1
  H  H244  1  0.79100000  0.33040000  0.19580000  1
  H  H245  1  0.30420000  0.16960000  0.70900000  1
  H  H246  1  0.42040000  0.46970000  0.82710000  1
  H  H247  1  0.67290000  0.03030000  0.07960000  1
  H  H248  1  0.40670000  0.85740000  0.82710000  1
  H  H249  1  0.67290000  0.64260000  0.09330000  1
  H  H250  1  0.70420000  0.27460000  0.13180000  1
  H  H251  1  0.36820000  0.22540000  0.79580000  1
  H  H252  1  0.92760000  0.13180000  0.35720000  1
  H  H253  1  0.14280000  0.36820000  0.57240000  1
  H  H254  1  0.24080000  0.88120000  0.68360000  1
  H  H255  1  0.81640000  0.61880000  0.25920000  1
  H  H256  1  0.07960000  0.17290000  0.53030000  1
  H  H257  1  0.96970000  0.32710000  0.42040000  1
  H  H258  1  0.00730000  0.70290000  0.46240000  1
  H  H259  1  0.03760000  0.79710000  0.49270000  1
  H  H260  1  0.13460000  0.30420000  0.59520000  1
  H  H261  1  0.90480000  0.19580000  0.36540000  1
  H  H262  1  0.81860000  0.29920000  0.28020000  1
  H  H263  1  0.21980000  0.20080000  0.68140000  1
  H  H264  1  0.29710000  0.30440000  0.75950000  1
  H  H265  1  0.74050000  0.19560000  0.20290000  1
  H  H266  1  0.85740000  0.40670000  0.32710000  1
  H  H267  1  0.17290000  0.09330000  0.64260000  1
  H  H268  1  0.86560000  0.98820000  0.33700000  1
  H  H269  1  0.16300000  0.51180000  0.63440000  1
  H  H270  1  0.03840000  0.71980000  0.51900000  1
  H  H271  1  0.98100000  0.78020000  0.46160000  1
  H  H272  1  0.29920000  0.81860000  0.78020000  1
  H  H273  1  0.71980000  0.68140000  0.20080000  1
  H  H274  1  0.25020000  0.87930000  0.73290000  1
  H  H275  1  0.76710000  0.62070000  0.24980000  1
  H  H276  1  0.68620000  0.18430000  0.17050000  1
  H  H277  1  0.32950000  0.31570000  0.81380000  1
  H  H278  1  0.19830000  0.84110000  0.68380000  1
  H  H279  1  0.81620000  0.65890000  0.30170000  1
  H  H280  1  0.18430000  0.68620000  0.67050000  1
  H  H281  1  0.82950000  0.81380000  0.31570000  1
  H  H282  1  0.37740000  0.52860000  0.86560000  1
  H  H283  1  0.63440000  0.97140000  0.12260000  1
  H  H284  1  0.20290000  0.24050000  0.69560000  1
  H  H285  1  0.80440000  0.25950000  0.29710000  1
  H  H286  1  0.98620000  0.67050000  0.48430000  1
  H  H287  1  0.01570000  0.82950000  0.51380000  1
  H  H288  1  0.98430000  0.17050000  0.48620000  1
  H  H289  1  0.01380000  0.32950000  0.51570000  1
  H  H290  1  0.19560000  0.74050000  0.70290000  1
  H  H291  1  0.79710000  0.75950000  0.30440000  1
  H  H292  1  0.36560000  0.02860000  0.87740000  1
  H  H293  1  0.62260000  0.47140000  0.13440000  1
  H  H294  1  0.17050000  0.18620000  0.68430000  1
  H  H295  1  0.81570000  0.31380000  0.32950000  1
  H  H296  1  0.18380000  0.34110000  0.69830000  1
  H  H297  1  0.80170000  0.15890000  0.31620000  1
  H  H298  1  0.67050000  0.68430000  0.18620000  1
  H  H299  1  0.31380000  0.81570000  0.82950000  1
  H  H300  1  0.23290000  0.37930000  0.75020000  1
  H  H301  1  0.74980000  0.12070000  0.26710000  1
  H  H302  1  0.28020000  0.31860000  0.79920000  1
  H  H303  1  0.70080000  0.18140000  0.21980000  1
  H  H304  1  0.01900000  0.21980000  0.53840000  1
  H  H305  1  0.96160000  0.28020000  0.48100000  1
  H  H306  1  0.83700000  0.48820000  0.36560000  1
  H  H307  1  0.13440000  0.01180000  0.66300000  1
  H  H308  1  0.82710000  0.90670000  0.35740000  1
  H  H309  1  0.14260000  0.59330000  0.67290000  1
  H  H310  1  0.25950000  0.80440000  0.79710000  1
  H  H311  1  0.70290000  0.69560000  0.24050000  1
  H  H312  1  0.78020000  0.79920000  0.31860000  1
  H  H313  1  0.18140000  0.70080000  0.71980000  1
  H  H314  1  0.09520000  0.80420000  0.63460000  1
  H  H315  1  0.86540000  0.69580000  0.40480000  1
  H  H316  1  0.96240000  0.20290000  0.50730000  1
  H  H317  1  0.99270000  0.29710000  0.53760000  1
  H  H318  1  0.03030000  0.67290000  0.57960000  1
  H  H319  1  0.92040000  0.82710000  0.46970000  1
  H  H320  1  0.18360000  0.38120000  0.74080000  1
  H  H321  1  0.75920000  0.11880000  0.31640000  1
  H  H322  1  0.85720000  0.63180000  0.42760000  1
  H  H323  1  0.07240000  0.86820000  0.64280000  1
  H  H324  1  0.63180000  0.77460000  0.20420000  1
  H  H325  1  0.29580000  0.72540000  0.86820000  1
  H  H326  1  0.32710000  0.35740000  0.90670000  1
  H  H327  1  0.59330000  0.14260000  0.17290000  1
  H  H328  1  0.32710000  0.96970000  0.92040000  1
  H  H329  1  0.57960000  0.53030000  0.17290000  1
  H  H330  1  0.69580000  0.83040000  0.29100000  1
  H  H331  1  0.20900000  0.66960000  0.80420000  1
  H  H332  1  0.14040000  0.44280000  0.75920000  1
  H  H333  1  0.74080000  0.05720000  0.35960000  1
  H  H334  1  0.75020000  0.01730000  0.37090000  1
  H  H335  1  0.12910000  0.48270000  0.74980000  1
  H  H336  1  0.51180000  0.16300000  0.13440000  1
  H  H337  1  0.36560000  0.33700000  0.98820000  1
  H  H338  1  0.01730000  0.26710000  0.64640000  1
  H  H339  1  0.85360000  0.23290000  0.48270000  1
  H  H340  1  0.29580000  0.57040000  0.92760000  1
  H  H341  1  0.57240000  0.92960000  0.20420000  1
  H  H342  1  0.48820000  0.65120000  0.12260000  1
  H  H343  1  0.37740000  0.84880000  0.01180000  1
  H  H344  1  0.19580000  0.29100000  0.83040000  1
  H  H345  1  0.66960000  0.20900000  0.30420000  1
  H  H346  1  0.05720000  0.31640000  0.69760000  1
  H  H347  1  0.80240000  0.18360000  0.44280000  1
  H  H348  1  0.90670000  0.07960000  0.54930000  1
  H  H349  1  0.95070000  0.42040000  0.59330000  1
  H  H350  1  0.13180000  0.20420000  0.77460000  1
  H  H351  1  0.01450000  0.31620000  0.65730000  1
  H  H352  1  0.84270000  0.18380000  0.48550000  1
  H  H353  1  0.72540000  0.29580000  0.36820000  1
  H  H354  1  0.73290000  0.75020000  0.37930000  1
  H  H355  1  0.12070000  0.74980000  0.76710000  1
  H  H356  1  0.97140000  0.63440000  0.62260000  1
  H  H357  1  0.87740000  0.86560000  0.52860000  1
  H  H358  1  0.68380000  0.69830000  0.34110000  1
  H  H359  1  0.15890000  0.80170000  0.81620000  1
  H  H360  1  0.69830000  0.01450000  0.35720000  1
  H  H361  1  0.14280000  0.48550000  0.80170000  1
  H  H362  1  0.98820000  0.12260000  0.65120000  1
  H  H363  1  0.84880000  0.37740000  0.51180000  1
  H  H364  1  0.19580000  0.90480000  0.86540000  1
  H  H365  1  0.63460000  0.59520000  0.30420000  1
  H  H366  1  0.31380000  0.49810000  0.98430000  1
  H  H367  1  0.51570000  0.00190000  0.18620000  1
  H  H368  1  0.40670000  0.54930000  0.07960000  1
  H  H369  1  0.42040000  0.95070000  0.09330000  1
  H  H370  1  0.79920000  0.01900000  0.48060000  1
  H  H371  1  0.01940000  0.48100000  0.70080000  1
  H  H372  1  0.11880000  0.35960000  0.80240000  1
  H  H373  1  0.69760000  0.14040000  0.38120000  1
  H  H374  1  0.15890000  0.35720000  0.84270000  1
  H  H375  1  0.65730000  0.14280000  0.34110000  1
  H  H376  1  0.81380000  0.98430000  0.49810000  1
  H  H377  1  0.00190000  0.51570000  0.68620000  1
  H  H378  1  0.48430000  0.48620000  0.17050000  1
  H  H379  1  0.32950000  0.01380000  0.01570000  1
  H  H380  1  0.75950000  0.96240000  0.45510000  1
  H  H381  1  0.04490000  0.53760000  0.74050000  1
  H  H382  1  0.20900000  0.53940000  0.90480000  1
  H  H383  1  0.59520000  0.96060000  0.29100000  1
  H  H384  1  0.68360000  0.74080000  0.38120000  1
  H  H385  1  0.11880000  0.75920000  0.81640000  1
  H  H386  1  0.65890000  0.84270000  0.35720000  1
  H  H387  1  0.14280000  0.65730000  0.84110000  1
  H  H388  1  0.51900000  0.53840000  0.21980000  1
  H  H389  1  0.28020000  0.96160000  0.98100000  1
  H  H390  1  0.25950000  0.45510000  0.96240000  1
  H  H391  1  0.53760000  0.04490000  0.24050000  1
  H  H392  1  0.36820000  0.14280000  0.07240000  1
  H  H393  1  0.42760000  0.35720000  0.13180000  1
  H  H394  1  0.83040000  0.13460000  0.53940000  1
  H  H395  1  0.96060000  0.36540000  0.66960000  1
  H  H396  1  0.29920000  0.48060000  0.01900000  1
  H  H397  1  0.48100000  0.01940000  0.20080000  1
  H  H398  1  0.13180000  0.92760000  0.85720000  1
  H  H399  1  0.64280000  0.57240000  0.36820000  1
  H  H400  1  0.12070000  0.37090000  0.85360000  1
  H  H401  1  0.64640000  0.12910000  0.37930000  1
  H  H402  1  0.46240000  0.50730000  0.20290000  1
  H  H403  1  0.29710000  0.99270000  0.03760000  1
  H  H404  1  0.61880000  0.80240000  0.35960000  1
  H  H405  1  0.14040000  0.69760000  0.88120000  1
  H  H406  1  0.51730000  0.64640000  0.26710000  1
  H  H407  1  0.23290000  0.85360000  0.98270000  1
  H  H408  1  0.62070000  0.85360000  0.37090000  1
  H  H409  1  0.12910000  0.64640000  0.87930000  1
  H  H410  1  0.55720000  0.69760000  0.31640000  1
  H  H411  1  0.18360000  0.80240000  0.94280000  1
  H  H412  1  0.69560000  0.99270000  0.45510000  1
  H  H413  1  0.04490000  0.50730000  0.80440000  1
  H  H414  1  0.25020000  0.37090000  0.01730000  1
  H  H415  1  0.48270000  0.12910000  0.24980000  1
  H  H416  1  0.79580000  0.92760000  0.57040000  1
  H  H417  1  0.92960000  0.57240000  0.70420000  1
  H  H418  1  0.18140000  0.48060000  0.96160000  1
  H  H419  1  0.53840000  0.01940000  0.31860000  1
  H  H420  1  0.30420000  0.13460000  0.09520000  1
  H  H421  1  0.40480000  0.36540000  0.19580000  1
  H  H422  1  0.77460000  0.14280000  0.57040000  1
  H  H423  1  0.92960000  0.35720000  0.72540000  1
  H  H424  1  0.19560000  0.45510000  0.99270000  1
  H  H425  1  0.50730000  0.04490000  0.30440000  1
  H  H426  1  0.68140000  0.96160000  0.48060000  1
  H  H427  1  0.01940000  0.53840000  0.81860000  1
  H  H428  1  0.51450000  0.65730000  0.31620000  1
  H  H429  1  0.18380000  0.84270000  0.98550000  1
  H  H430  1  0.64040000  0.75920000  0.44280000  1
  H  H431  1  0.05720000  0.74080000  0.85960000  1
  H  H432  1  0.33040000  0.53940000  0.13460000  1
  H  H433  1  0.36540000  0.96060000  0.16960000  1
  H  H434  1  0.49270000  0.53760000  0.29710000  1
  H  H435  1  0.20290000  0.96240000  0.00730000  1
  H  H436  1  0.68430000  0.01380000  0.49810000  1
  H  H437  1  0.00190000  0.48620000  0.81570000  1
  H  H438  1  0.51380000  0.51570000  0.32950000  1
  H  H439  1  0.17050000  0.98430000  0.98620000  1
  H  H440  1  0.19830000  0.35720000  0.01450000  1
  H  H441  1  0.48550000  0.14280000  0.30170000  1
  H  H442  1  0.24080000  0.35960000  0.05720000  1
  H  H443  1  0.44280000  0.14040000  0.25920000  1
  H  H444  1  0.46160000  0.48100000  0.28020000  1
  H  H445  1  0.21980000  0.01900000  0.03840000  1
  H  H446  1  0.14260000  0.54930000  0.96970000  1
  H  H447  1  0.53030000  0.95070000  0.35740000  1
  H  H448  1  0.18430000  0.49810000  0.01380000  1
  H  H449  1  0.48620000  0.00190000  0.31570000  1
  H  H450  1  0.70900000  0.90480000  0.53940000  1
  H  H451  1  0.96060000  0.59520000  0.79100000  1
  H  H452  1  0.52860000  0.37740000  0.36560000  1
  H  H453  1  0.13440000  0.12260000  0.97140000  1
  H  H454  1  0.34270000  0.48550000  0.18380000  1
  H  H455  1  0.31620000  0.01450000  0.15730000  1
  H  H456  1  0.64280000  0.80170000  0.48550000  1
  H  H457  1  0.01450000  0.69830000  0.85720000  1
  H  H458  1  0.98820000  0.86560000  0.83700000  1
  H  H459  1  0.66300000  0.63440000  0.51180000  1
  H  H460  1  0.62910000  0.74980000  0.48270000  1
  H  H461  1  0.01730000  0.75020000  0.87090000  1
  H  H462  1  0.30170000  0.31620000  0.15890000  1
  H  H463  1  0.07240000  0.20420000  0.92960000  1
  H  H464  1  0.57040000  0.29580000  0.42760000  1
  H  H465  1  0.34110000  0.18380000  0.19830000  1
  H  H466  1  0.17290000  0.07960000  0.03030000  1
  H  H467  1  0.46970000  0.42040000  0.32710000  1
  H  H468  1  0.25920000  0.31640000  0.11880000  1
  H  H469  1  0.38120000  0.18360000  0.24080000  1
  H  H470  1  0.09520000  0.29100000  0.96060000  1
  H  H471  1  0.53940000  0.20900000  0.40480000  1
  H  H472  1  0.47140000  0.84880000  0.33700000  1
  H  H473  1  0.16300000  0.65120000  0.02860000  1
  H  H474  1  0.27460000  0.57040000  0.14280000  1
  H  H475  1  0.35720000  0.92960000  0.22540000  1
  H  H476  1  0.24980000  0.26710000  0.12070000  1
  H  H477  1  0.37930000  0.23290000  0.25020000  1
  H  H478  1  0.97140000  0.33700000  0.84880000  1
  H  H479  1  0.65120000  0.16300000  0.52860000  1
  H  H480  1  0.35360000  0.48270000  0.23290000  1
  H  H481  1  0.26710000  0.01730000  0.14640000  1
  H  H482  1  0.30240000  0.44280000  0.18360000  1
  H  H483  1  0.31640000  0.05720000  0.19760000  1
  H  H484  1  0.46060000  0.66960000  0.36540000  1
  H  H485  1  0.13460000  0.83040000  0.03940000  1
  H  H486  1  0.64260000  0.96970000  0.54930000  1
  H  H487  1  0.95070000  0.53030000  0.85740000  1
  H  H488  1  0.03030000  0.35740000  0.95070000  1
  H  H489  1  0.54930000  0.14260000  0.46970000  1
  H  H490  1  0.42960000  0.72540000  0.35720000  1
  H  H491  1  0.14280000  0.77460000  0.07040000  1
  H  H492  1  0.79580000  0.86820000  0.72540000  1
  H  H493  1  0.77460000  0.63180000  0.70420000  1
  H  H494  1  0.19760000  0.38120000  0.14040000  1
  H  H495  1  0.35960000  0.11880000  0.30240000  1
  H  H496  1  0.64260000  0.67290000  0.59330000  1
  H  H497  1  0.90670000  0.82710000  0.85740000  1
  H  H498  1  0.24050000  0.20290000  0.19560000  1
  H  H499  1  0.30440000  0.29710000  0.25950000  1
  H  H500  1  0.70900000  0.80420000  0.66960000  1
  H  H501  1  0.83040000  0.69580000  0.79100000  1
  H  H502  1  0.51940000  0.70080000  0.48100000  1
  H  H503  1  0.01900000  0.79920000  0.98060000  1
  H  H504  1  0.54490000  0.80440000  0.50730000  1
  H  H505  1  0.99270000  0.69560000  0.95510000  1
  H  H506  1  0.45070000  0.59330000  0.42040000  1
  H  H507  1  0.07960000  0.90670000  0.04930000  1
  H  H508  1  0.87740000  0.01180000  0.84880000  1
  H  H509  1  0.65120000  0.48820000  0.62260000  1
  H  H510  1  0.20080000  0.21980000  0.18140000  1
  H  H511  1  0.31860000  0.28020000  0.29920000  1
  H  H512  1  0.03840000  0.31860000  0.01940000  1
  H  H513  1  0.48060000  0.18140000  0.46160000  1
  H  H514  1  0.14640000  0.37930000  0.12910000  1
  H  H515  1  0.37090000  0.12070000  0.35360000  1
  H  H516  1  0.50190000  0.81570000  0.48620000  1
  H  H517  1  0.01380000  0.68430000  0.99810000  1
  H  H518  1  0.15730000  0.34110000  0.14280000  1
  H  H519  1  0.35720000  0.15890000  0.34270000  1
  H  H520  1  0.01570000  0.18620000  0.00190000  1
  H  H521  1  0.49810000  0.31380000  0.48430000  1
  H  H522  1  0.66300000  0.02860000  0.65120000  1
  H  H523  1  0.84880000  0.47140000  0.83700000  1
  H  H524  1  0.54490000  0.74050000  0.53760000  1
  H  H525  1  0.96240000  0.75950000  0.95510000  1
  H  H526  1  0.31570000  0.32950000  0.31380000  1
  H  H527  1  0.18620000  0.17050000  0.18430000  1
  C  C528  1  0.85730000  0.99460000  0.85850000  1
  C  C529  1  0.64150000  0.50540000  0.64270000  1
  C  C530  1  0.74135000  0.85418000  0.74395000  1
  C  C531  1  0.75605000  0.64582000  0.75865000  1
  C  C532  1  0.63610000  0.99880000  0.64150000  1
  C  C533  1  0.85850000  0.50120000  0.86390000  1
  C  C534  1  0.19797000  0.31376000  0.20583000  1
  C  C535  1  0.29417000  0.18624000  0.30203000  1
  C  C536  1  0.01593000  0.32448000  0.03015000  1
  C  C537  1  0.46985000  0.17552000  0.48407000  1
  C  C538  1  0.01422000  0.20567000  0.03015000  1
  C  C539  1  0.46985000  0.29433000  0.48578000  1
  C  C540  1  0.09276000  0.45690000  0.11234000  1
  C  C541  1  0.38766000  0.04310000  0.40724000  1
  C  C542  1  0.04090000  0.37847000  0.06795000  1
  C  C543  1  0.43205000  0.12153000  0.45910000  1
  C  C544  1  0.79433000  0.80855000  0.82448000  1
  C  C545  1  0.67552000  0.69145000  0.70567000  1
  C  C546  1  0.62585000  0.85958000  0.66247000  1
  C  C547  1  0.83753000  0.64042000  0.87415000  1
  C  C548  1  0.25050000  0.38450000  0.29020000  1
  C  C549  1  0.20980000  0.11550000  0.24950000  1
  C  C550  1  0.02705000  0.18948000  0.06795000  1
  C  C551  1  0.43205000  0.31052000  0.47295000  1
  C  C552  1  0.86414000  0.01958000  0.90724000  1
  C  C553  1  0.59276000  0.48042000  0.63586000  1
  C  C554  1  0.06785000  0.17436000  0.12069000  1
  C  C555  1  0.37931000  0.32564000  0.43215000  1
  C  C556  1  0.89349000  0.06785000  0.94716000  1
  C  C557  1  0.55284000  0.43215000  0.60651000  1
  C  C558  1  0.05284000  0.44633000  0.12069000  1
  C  C559  1  0.37931000  0.05367000  0.44716000  1
  C  C560  1  0.81052000  0.83757000  0.87847000  1
  C  C561  1  0.62153000  0.66243000  0.68948000  1
  C  C562  1  0.57170000  0.82405000  0.64077000  1
  C  C563  1  0.85923000  0.67595000  0.92830000  1
  C  C564  1  0.67595000  0.81672000  0.74765000  1
  C  C565  1  0.75235000  0.68328000  0.82405000  1
  C  C566  1  0.01958000  0.15544000  0.11234000  1
  C  C567  1  0.38766000  0.34456000  0.48042000  1
  C  C568  1  0.86600000  0.25050000  0.96030000  1
  C  C569  1  0.53970000  0.24950000  0.63400000  1
  C  C570  1  0.44716000  0.87931000  0.55367000  1
  C  C571  1  0.94633000  0.62069000  0.05284000  1
  C  C572  1  0.88421000  0.19797000  0.99214000  1
  C  C573  1  0.50786000  0.30203000  0.61579000  1
  C  C574  1  0.50260000  0.75865000  0.61283000  1
  C  C575  1  0.88717000  0.74135000  0.99740000  1
  C  C576  1  0.84456000  0.86414000  0.95690000  1
  C  C577  1  0.54310000  0.63586000  0.65544000  1
  C  C578  1  0.88977000  0.24395000  0.00260000  1
  C  C579  1  0.49740000  0.25605000  0.61023000  1
  C  C580  1  0.63400000  0.03970000  0.74950000  1
  C  C581  1  0.75050000  0.46030000  0.86600000  1
  C  C582  1  0.49214000  0.79417000  0.60793000  1
  C  C583  1  0.89207000  0.70583000  0.00786000  1
  C  C584  1  0.55367000  0.60651000  0.67436000  1
  C  C585  1  0.82564000  0.89349000  0.94633000  1
  C  C586  1  0.83757000  0.02705000  0.95910000  1
  C  C587  1  0.54090000  0.47295000  0.66243000  1
  C  C588  1  0.64042000  0.80289000  0.76627000  1
  C  C589  1  0.73373000  0.69711000  0.85958000  1
  C  C590  1  0.46030000  0.70980000  0.59430000  1
  C  C591  1  0.90570000  0.79020000  0.03970000  1
  C  C592  1  0.40724000  0.88766000  0.54310000  1
  C  C593  1  0.95690000  0.61234000  0.09276000  1
  C  C594  1  0.50120000  0.64270000  0.63730000  1
  C  C595  1  0.86270000  0.85730000  0.99880000  1
  C  C596  1  0.86390000  0.35850000  0.00120000  1
  C  C597  1  0.49880000  0.14150000  0.63610000  1
  C  C598  1  0.69711000  0.96338000  0.83753000  1
  C  C599  1  0.66247000  0.53662000  0.80289000  1
  C  C600  1  0.93093000  0.24765000  0.07170000  1
  C  C601  1  0.42830000  0.25235000  0.56907000  1
  C  C602  1  0.99460000  0.13730000  0.13610000  1
  C  C603  1  0.36390000  0.36270000  0.50540000  1
  C  C604  1  0.35850000  0.86390000  0.50120000  1
  C  C605  1  0.99880000  0.63610000  0.14150000  1
  C  C606  1  0.61023000  0.99740000  0.75605000  1
  C  C607  1  0.74395000  0.50260000  0.88977000  1
  C  C608  1  0.88766000  0.40724000  0.04310000  1
  C  C609  1  0.45690000  0.09276000  0.61234000  1
  C  C610  1  0.45910000  0.93205000  0.62153000  1
  C  C611  1  0.87847000  0.56795000  0.04090000  1
  C  C612  1  0.96338000  0.26627000  0.12585000  1
  C  C613  1  0.37415000  0.23373000  0.53662000  1
  C  C614  1  0.87931000  0.44716000  0.05367000  1
  C  C615  1  0.44633000  0.05284000  0.62069000  1
  C  C616  1  0.80855000  0.01422000  0.98407000  1
  C  C617  1  0.51593000  0.48578000  0.69145000  1
  C  C618  1  0.68328000  0.93093000  0.85923000  1
  C  C619  1  0.64077000  0.56907000  0.81672000  1
  C  C620  1  0.56907000  0.92830000  0.75235000  1
  C  C621  1  0.74765000  0.57170000  0.93093000  1
  C  C622  1  0.61579000  0.00786000  0.80203000  1
  C  C623  1  0.69797000  0.49214000  0.88421000  1
  C  C624  1  0.93205000  0.45910000  0.12153000  1
  C  C625  1  0.37847000  0.04090000  0.56795000  1
  C  C626  1  0.48407000  0.96985000  0.67552000  1
  C  C627  1  0.82448000  0.53015000  0.01593000  1
  C  C628  1  0.53662000  0.87415000  0.73373000  1
  C  C629  1  0.76627000  0.62585000  0.96338000  1
  C  C630  1  0.00786000  0.39207000  0.20583000  1
  C  C631  1  0.29417000  0.10793000  0.49214000  1
  C  C632  1  0.96985000  0.48407000  0.17552000  1
  C  C633  1  0.32448000  0.01593000  0.53015000  1
  C  C634  1  0.60793000  0.61579000  0.81376000  1
  C  C635  1  0.68624000  0.88421000  0.89207000  1
  C  C636  1  0.03970000  0.63400000  0.24950000  1
  C  C637  1  0.25050000  0.86600000  0.46030000  1
  C  C638  1  0.80289000  0.16247000  0.03662000  1
  C  C639  1  0.46338000  0.33753000  0.69711000  1
  C  C640  1  0.64582000  0.88977000  0.88717000  1
  C  C641  1  0.61283000  0.61023000  0.85418000  1
  C  C642  1  0.99740000  0.38717000  0.24135000  1
  C  C643  1  0.25865000  0.11283000  0.50260000  1
  C  C644  1  0.92830000  0.35923000  0.17595000  1
  C  C645  1  0.32405000  0.14077000  0.57170000  1
  C  C646  1  0.36600000  0.40570000  0.61550000  1
  C  C647  1  0.88450000  0.09430000  0.13400000  1
  C  C648  1  0.03970000  0.40570000  0.29020000  1
  C  C649  1  0.20980000  0.09430000  0.46030000  1
  C  C650  1  0.81672000  0.14077000  0.06907000  1
  C  C651  1  0.43093000  0.35923000  0.68328000  1
  C  C652  1  0.85418000  0.11283000  0.11023000  1
  C  C653  1  0.38977000  0.38717000  0.64582000  1
  C  C654  1  0.99740000  0.61023000  0.25605000  1
  C  C655  1  0.24395000  0.88977000  0.50260000  1
  C  C656  1  0.87415000  0.33753000  0.14042000  1
  C  C657  1  0.35958000  0.16247000  0.62585000  1
  C  C658  1  0.59430000  0.63400000  0.88450000  1
  C  C659  1  0.61550000  0.86600000  0.90570000  1
  C  C660  1  0.00786000  0.61579000  0.30203000  1
  C  C661  1  0.19797000  0.88421000  0.49214000  1
  C  C662  1  0.69145000  0.01593000  0.98578000  1
  C  C663  1  0.51422000  0.48407000  0.80855000  1
  C  C664  1  0.38421000  0.39207000  0.68624000  1
  C  C665  1  0.81376000  0.10793000  0.11579000  1
  C  C666  1  0.33753000  0.87415000  0.64042000  1
  C  C667  1  0.85958000  0.62585000  0.16247000  1
  C  C668  1  0.48578000  0.96985000  0.79433000  1
  C  C669  1  0.70567000  0.53015000  0.01422000  1
  C  C670  1  0.66243000  0.04090000  0.97295000  1
  C  C671  1  0.52705000  0.45910000  0.83757000  1
  C  C672  1  0.39207000  0.00786000  0.70583000  1
  C  C673  1  0.79417000  0.49214000  0.10793000  1
  C  C674  1  0.35923000  0.92830000  0.67595000  1
  C  C675  1  0.82405000  0.57170000  0.14077000  1
  C  C676  1  0.92830000  0.56907000  0.25235000  1
  C  C677  1  0.24765000  0.93093000  0.57170000  1
  C  C678  1  0.96985000  0.48578000  0.29433000  1
  C  C679  1  0.20567000  0.01422000  0.53015000  1
  C  C680  1  0.60651000  0.05284000  0.93215000  1
  C  C681  1  0.56785000  0.44716000  0.89349000  1
  C  C682  1  0.85958000  0.23373000  0.19711000  1
  C  C683  1  0.30289000  0.26627000  0.64042000  1
  C  C684  1  0.47295000  0.93205000  0.81052000  1
  C  C685  1  0.68948000  0.56795000  0.02705000  1
  C  C686  1  0.63586000  0.09276000  0.98042000  1
  C  C687  1  0.51958000  0.40724000  0.86414000  1
  C  C688  1  0.38717000  0.99740000  0.74135000  1
  C  C689  1  0.75865000  0.50260000  0.11283000  1
  C  C690  1  0.50540000  0.86390000  0.86270000  1
  C  C691  1  0.63730000  0.63610000  0.99460000  1
  C  C692  1  0.99880000  0.36270000  0.35730000  1
  C  C693  1  0.14270000  0.13730000  0.50120000  1
  C  C694  1  0.82405000  0.25235000  0.18328000  1
  C  C695  1  0.31672000  0.24765000  0.67595000  1
  C  C696  1  0.87415000  0.53662000  0.23373000  1
  C  C697  1  0.26627000  0.96338000  0.62585000  1
  C  C698  1  0.64270000  0.14150000  0.00540000  1
  C  C699  1  0.49460000  0.35850000  0.85730000  1
  C  C700  1  0.14150000  0.64270000  0.50540000  1
  C  C701  1  0.99460000  0.85730000  0.35850000  1
  C  C702  1  0.48042000  0.88766000  0.84456000  1
  C  C703  1  0.65544000  0.61234000  0.01958000  1
  C  C704  1  0.24950000  0.70980000  0.61550000  1
  C  C705  1  0.88450000  0.79020000  0.25050000  1
  C  C706  1  0.16247000  0.80289000  0.53662000  1
  C  C707  1  0.96338000  0.69711000  0.33753000  1
  C  C708  1  0.93205000  0.47295000  0.31052000  1
  C  C709  1  0.18948000  0.02705000  0.56795000  1
  C  C710  1  0.05284000  0.60651000  0.43215000  1
  C  C711  1  0.06785000  0.89349000  0.44716000  1
  C  C712  1  0.30203000  0.79417000  0.68624000  1
  C  C713  1  0.81376000  0.70583000  0.19797000  1
  C  C714  1  0.40570000  0.03970000  0.79020000  1
  C  C715  1  0.70980000  0.46030000  0.09430000  1
  C  C716  1  0.75865000  0.25605000  0.14582000  1
  C  C717  1  0.35418000  0.24395000  0.74135000  1
  C  C718  1  0.09276000  0.63586000  0.48042000  1
  C  C719  1  0.01958000  0.86414000  0.40724000  1
  C  C720  1  0.25605000  0.75865000  0.64582000  1
  C  C721  1  0.85418000  0.74135000  0.24395000  1
  C  C722  1  0.79417000  0.30203000  0.18624000  1
  C  C723  1  0.31376000  0.19797000  0.70583000  1
  C  C724  1  0.43215000  0.87931000  0.82564000  1
  C  C725  1  0.67436000  0.62069000  0.06785000  1
  C  C726  1  0.70980000  0.24950000  0.11550000  1
  C  C727  1  0.38450000  0.25050000  0.79020000  1
  C  C728  1  0.13586000  0.15544000  0.54310000  1
  C  C729  1  0.95690000  0.34456000  0.36414000  1
  C  C730  1  0.14077000  0.81672000  0.56907000  1
  C  C731  1  0.93093000  0.68328000  0.35923000  1
  C  C732  1  0.25235000  0.82405000  0.68328000  1
  C  C733  1  0.81672000  0.67595000  0.24765000  1
  C  C734  1  0.04090000  0.66243000  0.47295000  1
  C  C735  1  0.02705000  0.83757000  0.45910000  1
  C  C736  1  0.39349000  0.44633000  0.82564000  1
  C  C737  1  0.67436000  0.05367000  0.10651000  1
  C  C738  1  0.87931000  0.43215000  0.32564000  1
  C  C739  1  0.17436000  0.06785000  0.62069000  1
  C  C740  1  0.10651000  0.17436000  0.55367000  1
  C  C741  1  0.94633000  0.32564000  0.39349000  1
  C  C742  1  0.88766000  0.48042000  0.34456000  1
  C  C743  1  0.15544000  0.01958000  0.61234000  1
  C  C744  1  0.16243000  0.18948000  0.62153000  1
  C  C745  1  0.87847000  0.31052000  0.33757000  1
  C  C746  1  0.90570000  0.11550000  0.36600000  1
  C  C747  1  0.13400000  0.38450000  0.59430000  1
  C  C748  1  0.23373000  0.85958000  0.69711000  1
  C  C749  1  0.80289000  0.64042000  0.26627000  1
  C  C750  1  0.01593000  0.69145000  0.48578000  1
  C  C751  1  0.01422000  0.80855000  0.48407000  1
  C  C752  1  0.33757000  0.37847000  0.81052000  1
  C  C753  1  0.68948000  0.12153000  0.16243000  1
  C  C754  1  0.36414000  0.45690000  0.84456000  1
  C  C755  1  0.65544000  0.04310000  0.13586000  1
  C  C756  1  0.19145000  0.20567000  0.67552000  1
  C  C757  1  0.82448000  0.29433000  0.30855000  1
  C  C758  1  0.30855000  0.32448000  0.79433000  1
  C  C759  1  0.70567000  0.17552000  0.19145000  1
  C  C760  1  0.11579000  0.31376000  0.60793000  1
  C  C761  1  0.89207000  0.18624000  0.38421000  1
  C  C762  1  0.36270000  0.99880000  0.85730000  1
  C  C763  1  0.64270000  0.50120000  0.13730000  1
  C  C764  1  0.11283000  0.85418000  0.61023000  1
  C  C765  1  0.88977000  0.64582000  0.38717000  1
  C  C766  1  0.86390000  0.50540000  0.36270000  1
  C  C767  1  0.13730000  0.99460000  0.63610000  1
  C  C768  1  0.86270000  0.00540000  0.36390000  1
  C  C769  1  0.13610000  0.49460000  0.63730000  1
  C  C770  1  0.11023000  0.35418000  0.61283000  1
  C  C771  1  0.88717000  0.14582000  0.38977000  1
  C  C772  1  0.35730000  0.49880000  0.86270000  1
  C  C773  1  0.63730000  0.00120000  0.14270000  1
  C  C774  1  0.10793000  0.81376000  0.61579000  1
  C  C775  1  0.88421000  0.68624000  0.39207000  1
  C  C776  1  0.29433000  0.82448000  0.80855000  1
  C  C777  1  0.69145000  0.67552000  0.20567000  1
  C  C778  1  0.17552000  0.70567000  0.69145000  1
  C  C779  1  0.80855000  0.79433000  0.32448000  1
  C  C780  1  0.34456000  0.95690000  0.86414000  1
  C  C781  1  0.63586000  0.54310000  0.15544000  1
  C  C782  1  0.31052000  0.87847000  0.83757000  1
  C  C783  1  0.66243000  0.62153000  0.18948000  1
  C  C784  1  0.98578000  0.19145000  0.51593000  1
  C  C785  1  0.98407000  0.30855000  0.51422000  1
  C  C786  1  0.19711000  0.35958000  0.73373000  1
  C  C787  1  0.76627000  0.14042000  0.30289000  1
  C  C788  1  0.86600000  0.61550000  0.40570000  1
  C  C789  1  0.09430000  0.88450000  0.63400000  1
  C  C790  1  0.12153000  0.68948000  0.66243000  1
  C  C791  1  0.83757000  0.81052000  0.37847000  1
  C  C792  1  0.84456000  0.98042000  0.38766000  1
  C  C793  1  0.11234000  0.51958000  0.65544000  1
  C  C794  1  0.05367000  0.67436000  0.60651000  1
  C  C795  1  0.89349000  0.82564000  0.44633000  1
  C  C796  1  0.82564000  0.93215000  0.37931000  1
  C  C797  1  0.12069000  0.56785000  0.67436000  1
  C  C798  1  0.32564000  0.94633000  0.89349000  1
  C  C799  1  0.60651000  0.55367000  0.17436000  1
  C  C800  1  0.97295000  0.16243000  0.54090000  1
  C  C801  1  0.95910000  0.33757000  0.52705000  1
  C  C802  1  0.18328000  0.32405000  0.75235000  1
  C  C803  1  0.74765000  0.17595000  0.31672000  1
  C  C804  1  0.06907000  0.31672000  0.64077000  1
  C  C805  1  0.85923000  0.18328000  0.43093000  1
  C  C806  1  0.04310000  0.65544000  0.63586000  1
  C  C807  1  0.86414000  0.84456000  0.45690000  1
  C  C808  1  0.61550000  0.74950000  0.20980000  1
  C  C809  1  0.29020000  0.75050000  0.88450000  1
  C  C810  1  0.32564000  0.37931000  0.93215000  1
  C  C811  1  0.56785000  0.12069000  0.17436000  1
  C  C812  1  0.68624000  0.80203000  0.29417000  1
  C  C813  1  0.20583000  0.69797000  0.81376000  1
  C  C814  1  0.14582000  0.25865000  0.75605000  1
  C  C815  1  0.74395000  0.24135000  0.35418000  1
  C  C816  1  0.98042000  0.13586000  0.59276000  1
  C  C817  1  0.90724000  0.36414000  0.51958000  1
  C  C818  1  0.64582000  0.75605000  0.25865000  1
  C  C819  1  0.24135000  0.74395000  0.85418000  1
  C  C820  1  0.29020000  0.53970000  0.90570000  1
  C  C821  1  0.59430000  0.96030000  0.20980000  1
  C  C822  1  0.18624000  0.29417000  0.80203000  1
  C  C823  1  0.69797000  0.20583000  0.31376000  1
  C  C824  1  0.93215000  0.10651000  0.55284000  1
  C  C825  1  0.94716000  0.39349000  0.56785000  1
  C  C826  1  0.81052000  0.97295000  0.43205000  1
  C  C827  1  0.06795000  0.52705000  0.68948000  1
  C  C828  1  0.03662000  0.30289000  0.66247000  1
  C  C829  1  0.83753000  0.19711000  0.46338000  1
  C  C830  1  0.11550000  0.20980000  0.74950000  1
  C  C831  1  0.75050000  0.29020000  0.38450000  1
  C  C832  1  0.34456000  0.38766000  0.98042000  1
  C  C833  1  0.51958000  0.11234000  0.15544000  1
  C  C834  1  0.00540000  0.14270000  0.64150000  1
  C  C835  1  0.85850000  0.35730000  0.49460000  1
  C  C836  1  0.50540000  0.64150000  0.14270000  1
  C  C837  1  0.35730000  0.85850000  0.99460000  1
  C  C838  1  0.73373000  0.03662000  0.37415000  1
  C  C839  1  0.12585000  0.46338000  0.76627000  1
  C  C840  1  0.68328000  0.75235000  0.32405000  1
  C  C841  1  0.17595000  0.74765000  0.81672000  1
  C  C842  1  0.85730000  0.86270000  0.49880000  1
  C  C843  1  0.00120000  0.63730000  0.64270000  1
  C  C844  1  0.36270000  0.36390000  0.00540000  1
  C  C845  1  0.49460000  0.13610000  0.13730000  1
  C  C846  1  0.24135000  0.49740000  0.88717000  1
  C  C847  1  0.61283000  0.00260000  0.25865000  1
  C  C848  1  0.48042000  0.59276000  0.13586000  1
  C  C849  1  0.36414000  0.90724000  0.01958000  1
  C  C850  1  0.31052000  0.43205000  0.97295000  1
  C  C851  1  0.52705000  0.06795000  0.18948000  1
  C  C852  1  0.69711000  0.73373000  0.35958000  1
  C  C853  1  0.14042000  0.76627000  0.80289000  1
  C  C854  1  0.43215000  0.55284000  0.10651000  1
  C  C855  1  0.39349000  0.94716000  0.06785000  1
  C  C856  1  0.79433000  0.98578000  0.46985000  1
  C  C857  1  0.03015000  0.51422000  0.70567000  1
  C  C858  1  0.75235000  0.06907000  0.42830000  1
  C  C859  1  0.07170000  0.43093000  0.74765000  1
  C  C860  1  0.17595000  0.42830000  0.85923000  1
  C  C861  1  0.64077000  0.07170000  0.32405000  1
  C  C862  1  0.20583000  0.50786000  0.89207000  1
  C  C863  1  0.60793000  0.99214000  0.29417000  1
  C  C864  1  0.47295000  0.54090000  0.16243000  1
  C  C865  1  0.33757000  0.95910000  0.02705000  1
  C  C866  1  0.29433000  0.46985000  0.98578000  1
  C  C867  1  0.51422000  0.03015000  0.20567000  1
  C  C868  1  0.14042000  0.37415000  0.83753000  1
  C  C869  1  0.66247000  0.12585000  0.35958000  1
  C  C870  1  0.18624000  0.89207000  0.88421000  1
  C  C871  1  0.61579000  0.60793000  0.31376000  1
  C  C872  1  0.48578000  0.51593000  0.19145000  1
  C  C873  1  0.30855000  0.98407000  0.01422000  1
  C  C874  1  0.80203000  0.11579000  0.50786000  1
  C  C875  1  0.99214000  0.38421000  0.69797000  1
  C  C876  1  0.38450000  0.13400000  0.09430000  1
  C  C877  1  0.40570000  0.36600000  0.11550000  1
  C  C878  1  0.64042000  0.83753000  0.37415000  1
  C  C879  1  0.12585000  0.66247000  0.85958000  1
  C  C880  1  0.75605000  0.11023000  0.49740000  1
  C  C881  1  0.00260000  0.38977000  0.74395000  1
  C  C882  1  0.61023000  0.61283000  0.35418000  1
  C  C883  1  0.14582000  0.88717000  0.88977000  1
  C  C884  1  0.56907000  0.64077000  0.31672000  1
  C  C885  1  0.18328000  0.85923000  0.93093000  1
  C  C886  1  0.79020000  0.90570000  0.53970000  1
  C  C887  1  0.96030000  0.59430000  0.70980000  1
  C  C888  1  0.11550000  0.90570000  0.86600000  1
  C  C889  1  0.63400000  0.59430000  0.38450000  1
  C  C890  1  0.67595000  0.85923000  0.42830000  1
  C  C891  1  0.07170000  0.64077000  0.82405000  1
  C  C892  1  0.74135000  0.88717000  0.49740000  1
  C  C893  1  0.00260000  0.61283000  0.75865000  1
  C  C894  1  0.38717000  0.38977000  0.14582000  1
  C  C895  1  0.35418000  0.11023000  0.11283000  1
  C  C896  1  0.53662000  0.66247000  0.30289000  1
  C  C897  1  0.19711000  0.83753000  0.96338000  1
  C  C898  1  0.74950000  0.13400000  0.53970000  1
  C  C899  1  0.96030000  0.36600000  0.75050000  1
  C  C900  1  0.31376000  0.11579000  0.10793000  1
  C  C901  1  0.39207000  0.38421000  0.18624000  1
  C  C902  1  0.67552000  0.98407000  0.46985000  1
  C  C903  1  0.03015000  0.51593000  0.82448000  1
  C  C904  1  0.70583000  0.89207000  0.50786000  1
  C  C905  1  0.99214000  0.60793000  0.79417000  1
  C  C906  1  0.23373000  0.37415000  0.03662000  1
  C  C907  1  0.46338000  0.12585000  0.26627000  1
  C  C908  1  0.17552000  0.46985000  0.98407000  1
  C  C909  1  0.51593000  0.03015000  0.32448000  1
  C  C910  1  0.62153000  0.95910000  0.43205000  1
  C  C911  1  0.06795000  0.54090000  0.87847000  1
  C  C912  1  0.30203000  0.50786000  0.11579000  1
  C  C913  1  0.38421000  0.99214000  0.19797000  1
  C  C914  1  0.25235000  0.42830000  0.06907000  1
  C  C915  1  0.43093000  0.07170000  0.24765000  1
  C  C916  1  0.35923000  0.43093000  0.18328000  1
  C  C917  1  0.31672000  0.06907000  0.14077000  1
  C  C918  1  0.48407000  0.51422000  0.30855000  1
  C  C919  1  0.19145000  0.98578000  0.01593000  1
  C  C920  1  0.55367000  0.94716000  0.37931000  1
  C  C921  1  0.12069000  0.55284000  0.94633000  1
  C  C922  1  0.62585000  0.76627000  0.46338000  1
  C  C923  1  0.03662000  0.73373000  0.87415000  1
  C  C924  1  0.12153000  0.43205000  0.95910000  1
  C  C925  1  0.54090000  0.06795000  0.37847000  1
  C  C926  1  0.54310000  0.90724000  0.38766000  1
  C  C927  1  0.11234000  0.59276000  0.95690000  1
  C  C928  1  0.25605000  0.49740000  0.11023000  1
  C  C929  1  0.38977000  0.00260000  0.24395000  1
  C  C930  1  0.00120000  0.36390000  0.85850000  1
  C  C931  1  0.64150000  0.13610000  0.49880000  1
  C  C932  1  0.63610000  0.63730000  0.49460000  1
  C  C933  1  0.00540000  0.86270000  0.86390000  1
  C  C934  1  0.57170000  0.74765000  0.43093000  1
  C  C935  1  0.06907000  0.75235000  0.92830000  1
  C  C936  1  0.33753000  0.46338000  0.19711000  1
  C  C937  1  0.30289000  0.03662000  0.16247000  1
  C  C938  1  0.50120000  0.85850000  0.36390000  1
  C  C939  1  0.13610000  0.64150000  0.99880000  1
  C  C940  1  0.13730000  0.14270000  0.00120000  1
  C  C941  1  0.49880000  0.35730000  0.36270000  1
  C  C942  1  0.04310000  0.38766000  0.90724000  1
  C  C943  1  0.59276000  0.11234000  0.45690000  1
  C  C944  1  0.09430000  0.20980000  0.96030000  1
  C  C945  1  0.53970000  0.29020000  0.40570000  1
  C  C946  1  0.26627000  0.30289000  0.14042000  1
  C  C947  1  0.35958000  0.19711000  0.23373000  1
  C  C948  1  0.45910000  0.52705000  0.33757000  1
  C  C949  1  0.16243000  0.97295000  0.04090000  1
  C  C950  1  0.17436000  0.10651000  0.05367000  1
  C  C951  1  0.44633000  0.39349000  0.32564000  1
  C  C952  1  0.10793000  0.29417000  0.99214000  1
  C  C953  1  0.50786000  0.20583000  0.39207000  1
  C  C954  1  0.24950000  0.53970000  0.13400000  1
  C  C955  1  0.36600000  0.96030000  0.25050000  1
  C  C956  1  0.50260000  0.74395000  0.38977000  1
  C  C957  1  0.11023000  0.75605000  0.99740000  1
  C  C958  1  0.45690000  0.36414000  0.34456000  1
  C  C959  1  0.15544000  0.13586000  0.04310000  1
  C  C960  1  0.11283000  0.25865000  0.00260000  1
  C  C961  1  0.49740000  0.24135000  0.38717000  1
  C  C962  1  0.49214000  0.69797000  0.38421000  1
  C  C963  1  0.11579000  0.80203000  0.00786000  1
  C  C964  1  0.05367000  0.37931000  0.94716000  1
  C  C965  1  0.55284000  0.12069000  0.44633000  1
  C  C966  1  0.46030000  0.75050000  0.36600000  1
  C  C967  1  0.13400000  0.74950000  0.03970000  1
  C  C968  1  0.61234000  0.65544000  0.51958000  1
  C  C969  1  0.98042000  0.84456000  0.88766000  1
  C  C970  1  0.24765000  0.31672000  0.17595000  1
  C  C971  1  0.32405000  0.18328000  0.25235000  1
  C  C972  1  0.14077000  0.32405000  0.07170000  1
  C  C973  1  0.42830000  0.17595000  0.35923000  1
  C  C974  1  0.37847000  0.33757000  0.31052000  1
  C  C975  1  0.18948000  0.16243000  0.12153000  1
  C  C976  1  0.62069000  0.94633000  0.55284000  1
  C  C977  1  0.94716000  0.55367000  0.87931000  1
  C  C978  1  0.44716000  0.56785000  0.39349000  1
  C  C979  1  0.10651000  0.93215000  0.05284000  1
  C  C980  1  0.62069000  0.67436000  0.56785000  1
  C  C981  1  0.93215000  0.82564000  0.87931000  1
  C  C982  1  0.40724000  0.51958000  0.36414000  1
  C  C983  1  0.13586000  0.98042000  0.09276000  1
  C  C984  1  0.56795000  0.68948000  0.52705000  1
  C  C985  1  0.97295000  0.81052000  0.93205000  1
  C  C986  1  0.79020000  0.88450000  0.75050000  1
  C  C987  1  0.74950000  0.61550000  0.70980000  1
  C  C988  1  0.16247000  0.35958000  0.12585000  1
  C  C989  1  0.37415000  0.14042000  0.33753000  1
  C  C990  1  0.32448000  0.30855000  0.29433000  1
  C  C991  1  0.20567000  0.19145000  0.17552000  1
  C  C992  1  0.56795000  0.87847000  0.54090000  1
  C  C993  1  0.95910000  0.62153000  0.93205000  1
  C  C994  1  0.61234000  0.95690000  0.59276000  1
  C  C995  1  0.90724000  0.54310000  0.88766000  1
  C  C996  1  0.53015000  0.70567000  0.51422000  1
  C  C997  1  0.98578000  0.79433000  0.96985000  1
  C  C998  1  0.53015000  0.82448000  0.51593000  1
  C  C999  1  0.98407000  0.67552000  0.96985000  1
  C  C1000  1  0.70583000  0.81376000  0.69797000  1
  C  C1001  1  0.80203000  0.68624000  0.79417000  1
  C  C1002  1  0.14150000  0.49880000  0.13610000  1
  C  C1003  1  0.36390000  0.00120000  0.35850000  1
  C  C1004  1  0.24395000  0.35418000  0.24135000  1
  C  C1005  1  0.25865000  0.14582000  0.25605000  1
  C  C1006  1  0.35850000  0.49460000  0.35730000  1
  C  C1007  1  0.14270000  0.00540000  0.14150000  1
  N  N1008  1  0.82350000  0.94800000  0.82770000  1
  N  N1009  1  0.67230000  0.55200000  0.67650000  1
  N  N1010  1  0.57881000  0.91282000  0.58473000  1
  N  N1011  1  0.91527000  0.58718000  0.92119000  1
  N  N1012  1  0.07217000  0.19484000  0.09253000  1
  N  N1013  1  0.40747000  0.30516000  0.42783000  1
  N  N1014  1  0.66488000  0.78978000  0.70056000  1
  N  N1015  1  0.79944000  0.71022000  0.83512000  1
  N  N1016  1  0.28440000  0.42960000  0.32700000  1
  N  N1017  1  0.17300000  0.07040000  0.21560000  1
  N  N1018  1  0.62030000  0.99580000  0.67230000  1
  N  N1019  1  0.82770000  0.50420000  0.87970000  1
  N  N1020  1  0.72230000  0.85675000  0.77625000  1
  N  N1021  1  0.72375000  0.64325000  0.77770000  1
  N  N1022  1  0.64520000  0.04260000  0.71560000  1
  N  N1023  1  0.78440000  0.45740000  0.85480000  1
  N  N1024  1  0.02036000  0.39769000  0.09253000  1
  N  N1025  1  0.40747000  0.10231000  0.47964000  1
  N  N1026  1  0.58718000  0.67191000  0.66599000  1
  N  N1027  1  0.83401000  0.82809000  0.91282000  1
  N  N1028  1  0.55395000  0.77770000  0.63445000  1
  N  N1029  1  0.86555000  0.72230000  0.94605000  1
  N  N1030  1  0.99408000  0.16599000  0.07881000  1
  N  N1031  1  0.42119000  0.33401000  0.50592000  1
  N  N1032  1  0.82809000  0.99408000  0.91527000  1
  N  N1033  1  0.58473000  0.50592000  0.67191000  1
  N  N1034  1  0.53568000  0.83512000  0.62490000  1
  N  N1035  1  0.87510000  0.66488000  0.96432000  1
  N  N1036  1  0.60231000  0.62267000  0.69484000  1
  N  N1037  1  0.80516000  0.87733000  0.89769000  1
  N  N1038  1  0.87733000  0.07217000  0.97964000  1
  N  N1039  1  0.52036000  0.42783000  0.62267000  1
  N  N1040  1  0.85480000  0.28440000  0.95740000  1
  N  N1041  1  0.54260000  0.21560000  0.64520000  1
  N  N1042  1  0.50420000  0.67650000  0.62450000  1
  N  N1043  1  0.87550000  0.82350000  0.99580000  1
  N  N1044  1  0.47964000  0.90747000  0.60231000  1
  N  N1045  1  0.89769000  0.59253000  0.02036000  1
  N  N1046  1  0.87970000  0.32770000  0.00420000  1
  N  N1047  1  0.49580000  0.17230000  0.62030000  1
  N  N1048  1  0.91078000  0.20056000  0.03568000  1
  N  N1049  1  0.46432000  0.29944000  0.58922000  1
  N  N1050  1  0.91950000  0.27625000  0.05395000  1
  N  N1051  1  0.44605000  0.22375000  0.58050000  1
  N  N1052  1  0.58050000  0.94605000  0.72375000  1
  N  N1053  1  0.77625000  0.55395000  0.91950000  1
  N  N1054  1  0.45740000  0.67300000  0.60260000  1
  N  N1055  1  0.89740000  0.82700000  0.04260000  1
  N  N1056  1  0.71022000  0.91078000  0.87510000  1
  N  N1057  1  0.62490000  0.58922000  0.78978000  1
  N  N1058  1  0.92119000  0.41527000  0.08718000  1
  N  N1059  1  0.41282000  0.08473000  0.57881000  1
  N  N1060  1  0.41527000  0.92119000  0.58718000  1
  N  N1061  1  0.91282000  0.57881000  0.08473000  1
  N  N1062  1  0.94800000  0.12450000  0.12030000  1
  N  N1063  1  0.37970000  0.37550000  0.55200000  1
  N  N1064  1  0.28440000  0.85480000  0.45740000  1
  N  N1065  1  0.04260000  0.64520000  0.21560000  1
  N  N1066  1  0.32770000  0.87970000  0.50420000  1
  N  N1067  1  0.99580000  0.62030000  0.17230000  1
  N  N1068  1  0.90747000  0.47964000  0.10231000  1
  N  N1069  1  0.39769000  0.02036000  0.59253000  1
  N  N1070  1  0.96432000  0.37510000  0.16488000  1
  N  N1071  1  0.33512000  0.12490000  0.53568000  1
  N  N1072  1  0.58922000  0.96432000  0.79944000  1
  N  N1073  1  0.70056000  0.53568000  0.91078000  1
  N  N1074  1  0.35480000  0.39740000  0.57040000  1
  N  N1075  1  0.92960000  0.10260000  0.14520000  1
  N  N1076  1  0.64325000  0.91950000  0.86555000  1
  N  N1077  1  0.63445000  0.58050000  0.85675000  1
  N  N1078  1  0.85675000  0.13445000  0.08050000  1
  N  N1079  1  0.41950000  0.36555000  0.64325000  1
  N  N1080  1  0.94605000  0.36555000  0.22230000  1
  N  N1081  1  0.27770000  0.13445000  0.55395000  1
  N  N1082  1  0.94605000  0.58050000  0.22375000  1
  N  N1083  1  0.27625000  0.91950000  0.55395000  1
  N  N1084  1  0.04260000  0.39740000  0.32700000  1
  N  N1085  1  0.17300000  0.10260000  0.45740000  1
  N  N1086  1  0.37510000  0.96432000  0.66488000  1
  N  N1087  1  0.83512000  0.53568000  0.12490000  1
  N  N1088  1  0.78978000  0.12490000  0.08922000  1
  N  N1089  1  0.41078000  0.37510000  0.71022000  1
  N  N1090  1  0.62267000  0.02036000  0.92783000  1
  N  N1091  1  0.57217000  0.47964000  0.87733000  1
  N  N1092  1  0.55200000  0.87970000  0.87550000  1
  N  N1093  1  0.62450000  0.62030000  0.94800000  1
  N  N1094  1  0.60260000  0.64520000  0.92960000  1
  N  N1095  1  0.57040000  0.85480000  0.89740000  1
  N  N1096  1  0.99580000  0.37550000  0.32350000  1
  N  N1097  1  0.17650000  0.12450000  0.50420000  1
  N  N1098  1  0.50592000  0.92119000  0.83401000  1
  N  N1099  1  0.66599000  0.57881000  0.99408000  1
  N  N1100  1  0.67191000  0.08473000  0.00592000  1
  N  N1101  1  0.49408000  0.41527000  0.82809000  1
  N  N1102  1  0.96432000  0.58922000  0.29944000  1
  N  N1103  1  0.20056000  0.91078000  0.53568000  1
  N  N1104  1  0.21560000  0.67300000  0.57040000  1
  N  N1105  1  0.92960000  0.82700000  0.28440000  1
  N  N1106  1  0.36555000  0.94605000  0.72230000  1
  N  N1107  1  0.77770000  0.55395000  0.13445000  1
  N  N1108  1  0.77770000  0.22375000  0.14325000  1
  N  N1109  1  0.35675000  0.27625000  0.72230000  1
  N  N1110  1  0.83512000  0.29944000  0.21022000  1
  N  N1111  1  0.28978000  0.20056000  0.66488000  1
  N  N1112  1  0.67650000  0.17230000  0.05200000  1
  N  N1113  1  0.44800000  0.32770000  0.82350000  1
  N  N1114  1  0.42783000  0.90747000  0.80516000  1
  N  N1115  1  0.69484000  0.59253000  0.07217000  1
  N  N1116  1  0.17230000  0.67650000  0.55200000  1
  N  N1117  1  0.94800000  0.82350000  0.32770000  1
  N  N1118  1  0.67300000  0.21560000  0.07040000  1
  N  N1119  1  0.42960000  0.28440000  0.82700000  1
  N  N1120  1  0.90747000  0.42783000  0.30516000  1
  N  N1121  1  0.19484000  0.07217000  0.59253000  1
  N  N1122  1  0.02036000  0.62267000  0.42783000  1
  N  N1123  1  0.07217000  0.87733000  0.47964000  1
  N  N1124  1  0.29944000  0.83512000  0.71022000  1
  N  N1125  1  0.78978000  0.66488000  0.20056000  1
  N  N1126  1  0.92119000  0.50592000  0.33401000  1
  N  N1127  1  0.16599000  0.99408000  0.57881000  1
  N  N1128  1  0.91282000  0.33401000  0.32809000  1
  N  N1129  1  0.17191000  0.16599000  0.58718000  1
  N  N1130  1  0.22375000  0.77770000  0.64325000  1
  N  N1131  1  0.85675000  0.72230000  0.27625000  1
  N  N1132  1  0.08473000  0.67191000  0.50592000  1
  N  N1133  1  0.99408000  0.82809000  0.41527000  1
  N  N1134  1  0.37733000  0.39769000  0.80516000  1
  N  N1135  1  0.69484000  0.10231000  0.12267000  1
  N  N1136  1  0.39740000  0.04260000  0.82700000  1
  N  N1137  1  0.67300000  0.45740000  0.10260000  1
  N  N1138  1  0.13445000  0.85675000  0.58050000  1
  N  N1139  1  0.91950000  0.64325000  0.36555000  1
  N  N1140  1  0.37550000  0.99580000  0.82350000  1
  N  N1141  1  0.67650000  0.50420000  0.12450000  1
  N  N1142  1  0.89740000  0.07040000  0.35480000  1
  N  N1143  1  0.14520000  0.42960000  0.60260000  1
  N  N1144  1  0.12490000  0.78978000  0.58922000  1
  N  N1145  1  0.91078000  0.71022000  0.37510000  1
  N  N1146  1  0.12267000  0.19484000  0.60231000  1
  N  N1147  1  0.89769000  0.30516000  0.37733000  1
  N  N1148  1  0.33401000  0.91282000  0.82809000  1
  N  N1149  1  0.67191000  0.58718000  0.16599000  1
  N  N1150  1  0.87970000  0.55200000  0.37550000  1
  N  N1151  1  0.12450000  0.94800000  0.62030000  1
  N  N1152  1  0.87550000  0.05200000  0.37970000  1
  N  N1153  1  0.12030000  0.44800000  0.62450000  1
  N  N1154  1  0.32809000  0.41282000  0.83401000  1
  N  N1155  1  0.66599000  0.08718000  0.17191000  1
  N  N1156  1  0.10231000  0.69484000  0.62267000  1
  N  N1157  1  0.87733000  0.80516000  0.39769000  1
  N  N1158  1  0.08922000  0.28978000  0.62490000  1
  N  N1159  1  0.87510000  0.21022000  0.41078000  1
  N  N1160  1  0.85480000  0.57040000  0.39740000  1
  N  N1161  1  0.10260000  0.92960000  0.64520000  1
  N  N1162  1  0.32350000  0.49580000  0.87550000  1
  N  N1163  1  0.62450000  0.00420000  0.17650000  1
  N  N1164  1  0.08050000  0.35675000  0.63445000  1
  N  N1165  1  0.86555000  0.14325000  0.41950000  1
  N  N1166  1  0.32700000  0.54260000  0.89740000  1
  N  N1167  1  0.60260000  0.95740000  0.17300000  1
  N  N1168  1  0.30516000  0.89769000  0.87733000  1
  N  N1169  1  0.62267000  0.60231000  0.19484000  1
  N  N1170  1  0.00592000  0.17191000  0.58473000  1
  N  N1171  1  0.91527000  0.32809000  0.49408000  1
  N  N1172  1  0.14325000  0.27770000  0.72375000  1
  N  N1173  1  0.77625000  0.22230000  0.35675000  1
  N  N1174  1  0.82809000  0.83401000  0.41282000  1
  N  N1175  1  0.08718000  0.66599000  0.67191000  1
  N  N1176  1  0.83401000  0.00592000  0.42119000  1
  N  N1177  1  0.07881000  0.49408000  0.66599000  1
  N  N1178  1  0.21022000  0.33512000  0.79944000  1
  N  N1179  1  0.70056000  0.16488000  0.28978000  1
  N  N1180  1  0.92783000  0.12267000  0.52036000  1
  N  N1181  1  0.97964000  0.37733000  0.57217000  1
  N  N1182  1  0.80516000  0.92783000  0.40747000  1
  N  N1183  1  0.09253000  0.57217000  0.69484000  1
  N  N1184  1  0.57040000  0.71560000  0.17300000  1
  N  N1185  1  0.32700000  0.78440000  0.92960000  1
  N  N1186  1  0.05200000  0.17650000  0.67230000  1
  N  N1187  1  0.82770000  0.32350000  0.44800000  1
  N  N1188  1  0.30516000  0.40747000  0.92783000  1
  N  N1189  1  0.57217000  0.09253000  0.19484000  1
  N  N1190  1  0.55200000  0.67230000  0.17650000  1
  N  N1191  1  0.32350000  0.82770000  0.94800000  1
  N  N1192  1  0.71022000  0.79944000  0.33512000  1
  N  N1193  1  0.16488000  0.70056000  0.78978000  1
  N  N1194  1  0.64325000  0.72375000  0.27770000  1
  N  N1195  1  0.22230000  0.77625000  0.85675000  1
  N  N1196  1  0.22230000  0.44605000  0.86555000  1
  N  N1197  1  0.63445000  0.05395000  0.27770000  1
  N  N1198  1  0.07040000  0.17300000  0.71560000  1
  N  N1199  1  0.78440000  0.32700000  0.42960000  1
  N  N1200  1  0.79944000  0.08922000  0.46432000  1
  N  N1201  1  0.03568000  0.41078000  0.70056000  1
  N  N1202  1  0.50592000  0.58473000  0.17191000  1
  N  N1203  1  0.32809000  0.91527000  0.99408000  1
  N  N1204  1  0.33401000  0.42119000  0.00592000  1
  N  N1205  1  0.49408000  0.07881000  0.16599000  1
  N  N1206  1  0.82350000  0.87550000  0.49580000  1
  N  N1207  1  0.00420000  0.62450000  0.67650000  1
  N  N1208  1  0.42960000  0.14520000  0.10260000  1
  N  N1209  1  0.39740000  0.35480000  0.07040000  1
  N  N1210  1  0.37550000  0.37970000  0.05200000  1
  N  N1211  1  0.44800000  0.12030000  0.12450000  1
  N  N1212  1  0.42783000  0.52036000  0.12267000  1
  N  N1213  1  0.37733000  0.97964000  0.07217000  1
  N  N1214  1  0.58922000  0.62490000  0.28978000  1
  N  N1215  1  0.21022000  0.87510000  0.91078000  1
  N  N1216  1  0.16488000  0.46432000  0.87510000  1
  N  N1217  1  0.62490000  0.03568000  0.33512000  1
  N  N1218  1  0.82700000  0.89740000  0.54260000  1
  N  N1219  1  0.95740000  0.60260000  0.67300000  1
  N  N1220  1  0.72375000  0.08050000  0.44605000  1
  N  N1221  1  0.05395000  0.41950000  0.77625000  1
  N  N1222  1  0.72230000  0.86555000  0.44605000  1
  N  N1223  1  0.05395000  0.63445000  0.77770000  1
  N  N1224  1  0.58050000  0.63445000  0.35675000  1
  N  N1225  1  0.14325000  0.86555000  0.91950000  1
  N  N1226  1  0.36555000  0.41950000  0.14325000  1
  N  N1227  1  0.35675000  0.08050000  0.13445000  1
  N  N1228  1  0.07040000  0.89740000  0.85480000  1
  N  N1229  1  0.64520000  0.60260000  0.42960000  1
  N  N1230  1  0.29944000  0.46432000  0.08922000  1
  N  N1231  1  0.41078000  0.03568000  0.20056000  1
  N  N1232  1  0.66488000  0.87510000  0.46432000  1
  N  N1233  1  0.03568000  0.62490000  0.83512000  1
  N  N1234  1  0.60231000  0.97964000  0.40747000  1
  N  N1235  1  0.09253000  0.52036000  0.89769000  1
  N  N1236  1  0.00420000  0.37970000  0.82770000  1
  N  N1237  1  0.67230000  0.12030000  0.49580000  1
  N  N1238  1  0.95740000  0.35480000  0.78440000  1
  N  N1239  1  0.71560000  0.14520000  0.54260000  1
  N  N1240  1  0.62030000  0.62450000  0.44800000  1
  N  N1241  1  0.05200000  0.87550000  0.87970000  1
  N  N1242  1  0.08718000  0.42119000  0.91527000  1
  N  N1243  1  0.58473000  0.07881000  0.41282000  1
  N  N1244  1  0.58718000  0.91527000  0.42119000  1
  N  N1245  1  0.07881000  0.58473000  0.91282000  1
  N  N1246  1  0.37510000  0.41078000  0.21022000  1
  N  N1247  1  0.28978000  0.08922000  0.12490000  1
  N  N1248  1  0.10260000  0.17300000  0.95740000  1
  N  N1249  1  0.54260000  0.32700000  0.39740000  1
  N  N1250  1  0.22375000  0.44605000  0.08050000  1
  N  N1251  1  0.41950000  0.05395000  0.27625000  1
  N  N1252  1  0.55395000  0.77625000  0.41950000  1
  N  N1253  1  0.08050000  0.72375000  0.94605000  1
  N  N1254  1  0.53568000  0.70056000  0.41078000  1
  N  N1255  1  0.08922000  0.79944000  0.96432000  1
  N  N1256  1  0.50420000  0.82770000  0.37970000  1
  N  N1257  1  0.12030000  0.67230000  0.99580000  1
  N  N1258  1  0.10231000  0.40747000  0.97964000  1
  N  N1259  1  0.52036000  0.09253000  0.39769000  1
  N  N1260  1  0.12450000  0.17650000  0.00420000  1
  N  N1261  1  0.49580000  0.32350000  0.37550000  1
  N  N1262  1  0.45740000  0.78440000  0.35480000  1
  N  N1263  1  0.14520000  0.71560000  0.04260000  1
  N  N1264  1  0.47964000  0.57217000  0.37733000  1
  N  N1265  1  0.12267000  0.92783000  0.02036000  1
  N  N1266  1  0.19484000  0.12267000  0.10231000  1
  N  N1267  1  0.39769000  0.37733000  0.30516000  1
  N  N1268  1  0.12490000  0.33512000  0.03568000  1
  N  N1269  1  0.46432000  0.16488000  0.37510000  1
  N  N1270  1  0.41527000  0.49408000  0.32809000  1
  N  N1271  1  0.17191000  0.00592000  0.08473000  1
  N  N1272  1  0.57881000  0.66599000  0.49408000  1
  N  N1273  1  0.00592000  0.83401000  0.92119000  1
  N  N1274  1  0.13445000  0.27770000  0.05395000  1
  N  N1275  1  0.44605000  0.22230000  0.36555000  1
  N  N1276  1  0.16599000  0.17191000  0.08718000  1
  N  N1277  1  0.41282000  0.32809000  0.33401000  1
  N  N1278  1  0.59253000  0.89769000  0.52036000  1
  N  N1279  1  0.97964000  0.60231000  0.90747000  1
  N  N1280  1  0.21560000  0.54260000  0.14520000  1
  N  N1281  1  0.35480000  0.95740000  0.28440000  1
  N  N1282  1  0.27625000  0.35675000  0.22230000  1
  N  N1283  1  0.27770000  0.14325000  0.22375000  1
  N  N1284  1  0.17230000  0.49580000  0.12030000  1
  N  N1285  1  0.37970000  0.00420000  0.32770000  1
  N  N1286  1  0.82700000  0.92960000  0.78440000  1
  N  N1287  1  0.71560000  0.57040000  0.67300000  1
  N  N1288  1  0.20056000  0.28978000  0.16488000  1
  N  N1289  1  0.33512000  0.21022000  0.29944000  1
  N  N1290  1  0.59253000  0.69484000  0.57217000  1
  N  N1291  1  0.92783000  0.80516000  0.90747000  1
  N  N1292  1  0.08473000  0.41282000  0.07881000  1
  N  N1293  1  0.42119000  0.08718000  0.41527000  1
  N  N1294  1  0.32770000  0.44800000  0.32350000  1
  N  N1295  1  0.17650000  0.05200000  0.17230000  1
