# generated using pymatgen
data_LaH18C24(NO3)2
_symmetry_space_group_name_H-M   'P 1'
_cell_length_a   10.13900000
_cell_length_b   17.80400000
_cell_length_c   20.01000000
_cell_angle_alpha   90.00000000
_cell_angle_beta   90.00000000
_cell_angle_gamma   90.00000000
_symmetry_Int_Tables_number   1
_chemical_formula_structural   LaH18C24(NO3)2
_chemical_formula_sum   'La4 H72 C96 N8 O24'
_cell_volume   3612.10026756
_cell_formula_units_Z   4
loop_
 _symmetry_equiv_pos_site_id
 _symmetry_equiv_pos_as_xyz
  1  'x, y, z'
loop_
 _atom_site_type_symbol
 _atom_site_label
 _atom_site_symmetry_multiplicity
 _atom_site_fract_x
 _atom_site_fract_y
 _atom_site_fract_z
 _atom_site_occupancy
  La  La0  1  0.03061000  0.25000000  0.25000000  1
  La  La1  1  0.46939000  0.75000000  0.75000000  1
  La  La2  1  0.53061000  0.25000000  0.25000000  1
  La  La3  1  0.96939000  0.75000000  0.75000000  1
  H  H4  1  0.01670000  0.22580000  0.55300000  1
  H  H5  1  0.01670000  0.27420000  0.94700000  1
  H  H6  1  0.02860000  0.74610000  0.94140000  1
  H  H7  1  0.02860000  0.75390000  0.55860000  1
  H  H8  1  0.04980000  0.55980000  0.81660000  1
  H  H9  1  0.04980000  0.94020000  0.68340000  1
  H  H10  1  0.12470000  0.66080000  0.11730000  1
  H  H11  1  0.12470000  0.83920000  0.38270000  1
  H  H12  1  0.12560000  0.13490000  0.03710000  1
  H  H13  1  0.12560000  0.36510000  0.46290000  1
  H  H14  1  0.12650000  0.00490000  0.59070000  1
  H  H15  1  0.12650000  0.49510000  0.90930000  1
  H  H16  1  0.18120000  0.11440000  0.92540000  1
  H  H17  1  0.18120000  0.38560000  0.57460000  1
  H  H18  1  0.19390000  0.05930000  0.50800000  1
  H  H19  1  0.19390000  0.44070000  0.99200000  1
  H  H20  1  0.23830000  0.62670000  0.58230000  1
  H  H21  1  0.23830000  0.87330000  0.91770000  1
  H  H22  1  0.26170000  0.12670000  0.41770000  1
  H  H23  1  0.26170000  0.37330000  0.08230000  1
  H  H24  1  0.30610000  0.55930000  0.49200000  1
  H  H25  1  0.30610000  0.94070000  0.00800000  1
  H  H26  1  0.31880000  0.61440000  0.07460000  1
  H  H27  1  0.31880000  0.88560000  0.42540000  1
  H  H28  1  0.37350000  0.50490000  0.40930000  1
  H  H29  1  0.37350000  0.99510000  0.09070000  1
  H  H30  1  0.37440000  0.63490000  0.96290000  1
  H  H31  1  0.37440000  0.86510000  0.53710000  1
  H  H32  1  0.37530000  0.16080000  0.88270000  1
  H  H33  1  0.37530000  0.33920000  0.61730000  1
  H  H34  1  0.45020000  0.05980000  0.18340000  1
  H  H35  1  0.45020000  0.44020000  0.31660000  1
  H  H36  1  0.47140000  0.24610000  0.05860000  1
  H  H37  1  0.47140000  0.25390000  0.44140000  1
  H  H38  1  0.48330000  0.72580000  0.44700000  1
  H  H39  1  0.48330000  0.77420000  0.05300000  1
  H  H40  1  0.51670000  0.22580000  0.94700000  1
  H  H41  1  0.51670000  0.27420000  0.55300000  1
  H  H42  1  0.52860000  0.74610000  0.55860000  1
  H  H43  1  0.52860000  0.75390000  0.94140000  1
  H  H44  1  0.54980000  0.55980000  0.68340000  1
  H  H45  1  0.54980000  0.94020000  0.81660000  1
  H  H46  1  0.62470000  0.66080000  0.38270000  1
  H  H47  1  0.62470000  0.83920000  0.11730000  1
  H  H48  1  0.62560000  0.13490000  0.46290000  1
  H  H49  1  0.62560000  0.36510000  0.03710000  1
  H  H50  1  0.62650000  0.00490000  0.90930000  1
  H  H51  1  0.62650000  0.49510000  0.59070000  1
  H  H52  1  0.68120000  0.11440000  0.57460000  1
  H  H53  1  0.68120000  0.38560000  0.92540000  1
  H  H54  1  0.69390000  0.05930000  0.99200000  1
  H  H55  1  0.69390000  0.44070000  0.50800000  1
  H  H56  1  0.73830000  0.62670000  0.91770000  1
  H  H57  1  0.73830000  0.87330000  0.58230000  1
  H  H58  1  0.76170000  0.12670000  0.08230000  1
  H  H59  1  0.76170000  0.37330000  0.41770000  1
  H  H60  1  0.80610000  0.55930000  0.00800000  1
  H  H61  1  0.80610000  0.94070000  0.49200000  1
  H  H62  1  0.81880000  0.61440000  0.42540000  1
  H  H63  1  0.81880000  0.88560000  0.07460000  1
  H  H64  1  0.87350000  0.50490000  0.09070000  1
  H  H65  1  0.87350000  0.99510000  0.40930000  1
  H  H66  1  0.87440000  0.63490000  0.53710000  1
  H  H67  1  0.87440000  0.86510000  0.96290000  1
  H  H68  1  0.87530000  0.16080000  0.61730000  1
  H  H69  1  0.87530000  0.33920000  0.88270000  1
  H  H70  1  0.95020000  0.05980000  0.31660000  1
  H  H71  1  0.95020000  0.44020000  0.18340000  1
  H  H72  1  0.97140000  0.24610000  0.44140000  1
  H  H73  1  0.97140000  0.25390000  0.05860000  1
  H  H74  1  0.98330000  0.72580000  0.05300000  1
  H  H75  1  0.98330000  0.77420000  0.44700000  1
  C  C76  1  0.00190000  0.56070000  0.85620000  1
  C  C77  1  0.00190000  0.93930000  0.64380000  1
  C  C78  1  0.02410000  0.02110000  0.47070000  1
  C  C79  1  0.02410000  0.47890000  0.02930000  1
  C  C80  1  0.04740000  0.52140000  0.91180000  1
  C  C81  1  0.04740000  0.97860000  0.58820000  1
  C  C82  1  0.06100000  0.70740000  0.03450000  1
  C  C83  1  0.06100000  0.79260000  0.46550000  1
  C  C84  1  0.08800000  0.71980000  0.96800000  1
  C  C85  1  0.08800000  0.78020000  0.53200000  1
  C  C86  1  0.14130000  0.06010000  0.46990000  1
  C  C87  1  0.14130000  0.43990000  0.03010000  1
  C  C88  1  0.14510000  0.66900000  0.07260000  1
  C  C89  1  0.14510000  0.83100000  0.42740000  1
  C  C90  1  0.18330000  0.09970000  0.41590000  1
  C  C91  1  0.18330000  0.40030000  0.08410000  1
  C  C92  1  0.20460000  0.15290000  0.01970000  1
  C  C93  1  0.20460000  0.34710000  0.48030000  1
  C  C94  1  0.20750000  0.69230000  0.94060000  1
  C  C95  1  0.20750000  0.80770000  0.55940000  1
  C  C96  1  0.23560000  0.70280000  0.86720000  1
  C  C97  1  0.23560000  0.79720000  0.63280000  1
  C  C98  1  0.23800000  0.14120000  0.95300000  1
  C  C99  1  0.23800000  0.35880000  0.54700000  1
  C  C100  1  0.26200000  0.64120000  0.04700000  1
  C  C101  1  0.26200000  0.85880000  0.45300000  1
  C  C102  1  0.26440000  0.20280000  0.13280000  1
  C  C103  1  0.26440000  0.29720000  0.36720000  1
  C  C104  1  0.29250000  0.19230000  0.05940000  1
  C  C105  1  0.29250000  0.30770000  0.44060000  1
  C  C106  1  0.29540000  0.65290000  0.98030000  1
  C  C107  1  0.29540000  0.84710000  0.51970000  1
  C  C108  1  0.31670000  0.59970000  0.58410000  1
  C  C109  1  0.31670000  0.90030000  0.91590000  1
  C  C110  1  0.35490000  0.16900000  0.92740000  1
  C  C111  1  0.35490000  0.33100000  0.57260000  1
  C  C112  1  0.35870000  0.56010000  0.53010000  1
  C  C113  1  0.35870000  0.93990000  0.96990000  1
  C  C114  1  0.41200000  0.21980000  0.03200000  1
  C  C115  1  0.41200000  0.28020000  0.46800000  1
  C  C116  1  0.43900000  0.20740000  0.96550000  1
  C  C117  1  0.43900000  0.29260000  0.53450000  1
  C  C118  1  0.45260000  0.02140000  0.08820000  1
  C  C119  1  0.45260000  0.47860000  0.41180000  1
  C  C120  1  0.47590000  0.52110000  0.52930000  1
  C  C121  1  0.47590000  0.97890000  0.97070000  1
  C  C122  1  0.49810000  0.06070000  0.14380000  1
  C  C123  1  0.49810000  0.43930000  0.35620000  1
  C  C124  1  0.50190000  0.56070000  0.64380000  1
  C  C125  1  0.50190000  0.93930000  0.85620000  1
  C  C126  1  0.52410000  0.02110000  0.02930000  1
  C  C127  1  0.52410000  0.47890000  0.47070000  1
  C  C128  1  0.54740000  0.52140000  0.58820000  1
  C  C129  1  0.54740000  0.97860000  0.91180000  1
  C  C130  1  0.56100000  0.70740000  0.46550000  1
  C  C131  1  0.56100000  0.79260000  0.03450000  1
  C  C132  1  0.58800000  0.71980000  0.53200000  1
  C  C133  1  0.58800000  0.78020000  0.96800000  1
  C  C134  1  0.64130000  0.06010000  0.03010000  1
  C  C135  1  0.64130000  0.43990000  0.46990000  1
  C  C136  1  0.64510000  0.66900000  0.42740000  1
  C  C137  1  0.64510000  0.83100000  0.07260000  1
  C  C138  1  0.68330000  0.09970000  0.08410000  1
  C  C139  1  0.68330000  0.40030000  0.41590000  1
  C  C140  1  0.70460000  0.15290000  0.48030000  1
  C  C141  1  0.70460000  0.34710000  0.01970000  1
  C  C142  1  0.70750000  0.69230000  0.55940000  1
  C  C143  1  0.70750000  0.80770000  0.94060000  1
  C  C144  1  0.73560000  0.70280000  0.63280000  1
  C  C145  1  0.73560000  0.79720000  0.86720000  1
  C  C146  1  0.73800000  0.14120000  0.54700000  1
  C  C147  1  0.73800000  0.35880000  0.95300000  1
  C  C148  1  0.76200000  0.64120000  0.45300000  1
  C  C149  1  0.76200000  0.85880000  0.04700000  1
  C  C150  1  0.76440000  0.20280000  0.36720000  1
  C  C151  1  0.76440000  0.29720000  0.13280000  1
  C  C152  1  0.79250000  0.19230000  0.44060000  1
  C  C153  1  0.79250000  0.30770000  0.05940000  1
  C  C154  1  0.79540000  0.65290000  0.51970000  1
  C  C155  1  0.79540000  0.84710000  0.98030000  1
  C  C156  1  0.81670000  0.59970000  0.91590000  1
  C  C157  1  0.81670000  0.90030000  0.58410000  1
  C  C158  1  0.85490000  0.16900000  0.57260000  1
  C  C159  1  0.85490000  0.33100000  0.92740000  1
  C  C160  1  0.85870000  0.56010000  0.96990000  1
  C  C161  1  0.85870000  0.93990000  0.53010000  1
  C  C162  1  0.91200000  0.21980000  0.46800000  1
  C  C163  1  0.91200000  0.28020000  0.03200000  1
  C  C164  1  0.93900000  0.20740000  0.53450000  1
  C  C165  1  0.93900000  0.29260000  0.96550000  1
  C  C166  1  0.95260000  0.02140000  0.41180000  1
  C  C167  1  0.95260000  0.47860000  0.08820000  1
  C  C168  1  0.97590000  0.52110000  0.97070000  1
  C  C169  1  0.97590000  0.97890000  0.52930000  1
  C  C170  1  0.99810000  0.06070000  0.35620000  1
  C  C171  1  0.99810000  0.43930000  0.14380000  1
  N  N172  1  0.10980000  0.09940000  0.35970000  1
  N  N173  1  0.10980000  0.40060000  0.14030000  1
  N  N174  1  0.39020000  0.59940000  0.64030000  1
  N  N175  1  0.39020000  0.90060000  0.85970000  1
  N  N176  1  0.60980000  0.09940000  0.14030000  1
  N  N177  1  0.60980000  0.40060000  0.35970000  1
  N  N178  1  0.89020000  0.59940000  0.85970000  1
  N  N179  1  0.89020000  0.90060000  0.64030000  1
  O  O180  1  0.13730000  0.71840000  0.83020000  1
  O  O181  1  0.13730000  0.78160000  0.66980000  1
  O  O182  1  0.14830000  0.14030000  0.30690000  1
  O  O183  1  0.14830000  0.35970000  0.19310000  1
  O  O184  1  0.14840000  0.19560000  0.15190000  1
  O  O185  1  0.14840000  0.30440000  0.34810000  1
  O  O186  1  0.35160000  0.69560000  0.84810000  1
  O  O187  1  0.35160000  0.80440000  0.65190000  1
  O  O188  1  0.35170000  0.64030000  0.69310000  1
  O  O189  1  0.35170000  0.85970000  0.80690000  1
  O  O190  1  0.36270000  0.21840000  0.16980000  1
  O  O191  1  0.36270000  0.28160000  0.33020000  1
  O  O192  1  0.63730000  0.71840000  0.66980000  1
  O  O193  1  0.63730000  0.78160000  0.83020000  1
  O  O194  1  0.64830000  0.14030000  0.19310000  1
  O  O195  1  0.64830000  0.35970000  0.30690000  1
  O  O196  1  0.64840000  0.19560000  0.34810000  1
  O  O197  1  0.64840000  0.30440000  0.15190000  1
  O  O198  1  0.85160000  0.69560000  0.65190000  1
  O  O199  1  0.85160000  0.80440000  0.84810000  1
  O  O200  1  0.85170000  0.64030000  0.80690000  1
  O  O201  1  0.85170000  0.85970000  0.69310000  1
  O  O202  1  0.86270000  0.21840000  0.33020000  1
  O  O203  1  0.86270000  0.28160000  0.16980000  1
