# generated using pymatgen
data_In2P2O8F
_symmetry_space_group_name_H-M   'P 1'
_cell_length_a   10.28000000
_cell_length_b   12.70000000
_cell_length_c   17.86000000
_cell_angle_alpha   90.00000000
_cell_angle_beta   102.47000000
_cell_angle_gamma   90.00000000
_symmetry_Int_Tables_number   1
_chemical_formula_structural   In2P2O8F
_chemical_formula_sum   'In16 P16 O64 F8'
_cell_volume   2276.72278201
_cell_formula_units_Z   8
loop_
 _symmetry_equiv_pos_site_id
 _symmetry_equiv_pos_as_xyz
  1  'x, y, z'
loop_
 _atom_site_type_symbol
 _atom_site_label
 _atom_site_symmetry_multiplicity
 _atom_site_fract_x
 _atom_site_fract_y
 _atom_site_fract_z
 _atom_site_occupancy
  In  In0  1  0.03124000  0.61624000  0.29178000  1
  In  In1  1  0.05695000  0.02179000  0.87409000  1
  In  In2  1  0.13295000  0.35219000  0.07773000  1
  In  In3  1  0.24572000  0.57260000  0.77769000  1
  In  In4  1  0.25428000  0.07260000  0.72231000  1
  In  In5  1  0.36705000  0.85219000  0.42227000  1
  In  In6  1  0.44305000  0.52179000  0.62591000  1
  In  In7  1  0.46876000  0.11624000  0.20822000  1
  In  In8  1  0.53124000  0.88376000  0.79178000  1
  In  In9  1  0.55695000  0.47821000  0.37409000  1
  In  In10  1  0.63295000  0.14781000  0.57773000  1
  In  In11  1  0.74572000  0.92740000  0.27769000  1
  In  In12  1  0.75428000  0.42740000  0.22231000  1
  In  In13  1  0.86705000  0.64781000  0.92227000  1
  In  In14  1  0.94305000  0.97821000  0.12591000  1
  In  In15  1  0.96876000  0.38376000  0.70822000  1
  P  P16  1  0.06511000  0.88370000  0.30750000  1
  P  P17  1  0.08086000  0.45387000  0.89248000  1
  P  P18  1  0.20258000  0.08959000  0.05842000  1
  P  P19  1  0.22068000  0.84032000  0.79941000  1
  P  P20  1  0.27932000  0.34032000  0.70059000  1
  P  P21  1  0.29742000  0.58959000  0.44158000  1
  P  P22  1  0.41914000  0.95387000  0.60752000  1
  P  P23  1  0.43489000  0.38370000  0.19250000  1
  P  P24  1  0.56511000  0.61630000  0.80750000  1
  P  P25  1  0.58086000  0.04613000  0.39248000  1
  P  P26  1  0.70258000  0.41041000  0.55842000  1
  P  P27  1  0.72068000  0.65968000  0.29941000  1
  P  P28  1  0.77932000  0.15968000  0.20059000  1
  P  P29  1  0.79742000  0.91041000  0.94158000  1
  P  P30  1  0.91914000  0.54613000  0.10752000  1
  P  P31  1  0.93489000  0.11630000  0.69250000  1
  O  O32  1  0.05450000  0.49540000  0.10680000  1
  O  O33  1  0.05830000  0.95970000  0.23970000  1
  O  O34  1  0.06120000  0.37220000  0.82830000  1
  O  O35  1  0.06230000  0.11280000  0.66160000  1
  O  O36  1  0.09280000  0.77150000  0.28080000  1
  O  O37  1  0.11430000  0.05860000  0.11340000  1
  O  O38  1  0.13210000  0.34080000  0.66120000  1
  O  O39  1  0.13630000  0.87120000  0.85760000  1
  O  O40  1  0.13960000  0.40120000  0.96830000  1
  O  O41  1  0.15060000  0.57910000  0.39970000  1
  O  O42  1  0.17410000  0.72900000  0.77010000  1
  O  O43  1  0.17480000  0.02130000  0.98670000  1
  O  O44  1  0.17500000  0.20560000  0.03420000  1
  O  O45  1  0.17930000  0.54230000  0.87960000  1
  O  O46  1  0.18160000  0.91630000  0.37280000  1
  O  O47  1  0.19100000  0.91600000  0.73120000  1
  O  O48  1  0.30900000  0.41600000  0.76880000  1
  O  O49  1  0.31840000  0.41630000  0.12720000  1
  O  O50  1  0.32070000  0.04230000  0.62040000  1
  O  O51  1  0.32500000  0.70560000  0.46580000  1
  O  O52  1  0.32520000  0.52130000  0.51330000  1
  O  O53  1  0.32590000  0.22900000  0.72990000  1
  O  O54  1  0.34940000  0.07910000  0.10030000  1
  O  O55  1  0.36040000  0.90120000  0.53170000  1
  O  O56  1  0.36370000  0.37120000  0.64240000  1
  O  O57  1  0.36790000  0.84080000  0.83880000  1
  O  O58  1  0.38570000  0.55860000  0.38660000  1
  O  O59  1  0.40720000  0.27150000  0.21920000  1
  O  O60  1  0.43770000  0.61280000  0.83840000  1
  O  O61  1  0.43880000  0.87220000  0.67170000  1
  O  O62  1  0.44170000  0.45970000  0.26030000  1
  O  O63  1  0.44550000  0.99540000  0.39320000  1
  O  O64  1  0.55450000  0.00460000  0.60680000  1
  O  O65  1  0.55830000  0.54030000  0.73970000  1
  O  O66  1  0.56120000  0.12780000  0.32830000  1
  O  O67  1  0.56230000  0.38720000  0.16160000  1
  O  O68  1  0.59280000  0.72850000  0.78080000  1
  O  O69  1  0.61430000  0.44140000  0.61340000  1
  O  O70  1  0.63210000  0.15920000  0.16120000  1
  O  O71  1  0.63630000  0.62880000  0.35760000  1
  O  O72  1  0.63960000  0.09880000  0.46830000  1
  O  O73  1  0.65060000  0.92090000  0.89970000  1
  O  O74  1  0.67410000  0.77100000  0.27010000  1
  O  O75  1  0.67480000  0.47870000  0.48670000  1
  O  O76  1  0.67500000  0.29440000  0.53420000  1
  O  O77  1  0.67930000  0.95770000  0.37960000  1
  O  O78  1  0.68160000  0.58370000  0.87280000  1
  O  O79  1  0.69100000  0.58400000  0.23120000  1
  O  O80  1  0.80900000  0.08400000  0.26880000  1
  O  O81  1  0.81840000  0.08370000  0.62720000  1
  O  O82  1  0.82070000  0.45770000  0.12040000  1
  O  O83  1  0.82500000  0.79440000  0.96580000  1
  O  O84  1  0.82520000  0.97870000  0.01330000  1
  O  O85  1  0.82590000  0.27100000  0.22990000  1
  O  O86  1  0.84940000  0.42090000  0.60030000  1
  O  O87  1  0.86040000  0.59880000  0.03170000  1
  O  O88  1  0.86370000  0.12880000  0.14240000  1
  O  O89  1  0.86790000  0.65920000  0.33880000  1
  O  O90  1  0.88570000  0.94140000  0.88660000  1
  O  O91  1  0.90720000  0.22850000  0.71920000  1
  O  O92  1  0.93770000  0.88720000  0.33840000  1
  O  O93  1  0.93880000  0.62780000  0.17170000  1
  O  O94  1  0.94170000  0.04030000  0.76030000  1
  O  O95  1  0.94550000  0.50460000  0.89320000  1
  F  F96  1  0.04840000  0.53840000  0.71810000  1
  F  F97  1  0.21240000  0.09390000  0.83200000  1
  F  F98  1  0.28760000  0.59390000  0.66800000  1
  F  F99  1  0.45160000  0.03840000  0.78190000  1
  F  F100  1  0.54840000  0.96160000  0.21810000  1
  F  F101  1  0.71240000  0.40610000  0.33200000  1
  F  F102  1  0.78760000  0.90610000  0.16800000  1
  F  F103  1  0.95160000  0.46160000  0.28190000  1
