# generated using pymatgen
data_SmH2C7(NO3)2
_symmetry_space_group_name_H-M   'P 1'
_cell_length_a   10.96200000
_cell_length_b   11.86800000
_cell_length_c   19.30700000
_cell_angle_alpha   90.00000000
_cell_angle_beta   90.00000000
_cell_angle_gamma   90.00000000
_symmetry_Int_Tables_number   1
_chemical_formula_structural   SmH2C7(NO3)2
_chemical_formula_sum   'Sm8 H16 C56 N16 O48'
_cell_volume   2511.78308791
_cell_formula_units_Z   8
loop_
 _symmetry_equiv_pos_site_id
 _symmetry_equiv_pos_as_xyz
  1  'x, y, z'
loop_
 _atom_site_type_symbol
 _atom_site_label
 _atom_site_symmetry_multiplicity
 _atom_site_fract_x
 _atom_site_fract_y
 _atom_site_fract_z
 _atom_site_occupancy
  Sm  Sm0  1  0.11880000  0.52708000  0.31564000  1
  Sm  Sm1  1  0.13724000  0.15766000  0.60119000  1
  Sm  Sm2  1  0.36276000  0.65766000  0.60119000  1
  Sm  Sm3  1  0.38120000  0.02708000  0.31564000  1
  Sm  Sm4  1  0.61880000  0.97292000  0.81564000  1
  Sm  Sm5  1  0.63724000  0.34234000  0.10119000  1
  Sm  Sm6  1  0.86276000  0.84234000  0.10119000  1
  Sm  Sm7  1  0.88120000  0.47292000  0.81564000  1
  H  H8  1  0.00490000  0.74200000  0.70150000  1
  H  H9  1  0.12770000  0.89840000  0.21510000  1
  H  H10  1  0.14800000  0.50470000  0.70710000  1
  H  H11  1  0.22910000  0.25260000  0.86980000  1
  H  H12  1  0.27090000  0.75260000  0.86980000  1
  H  H13  1  0.35200000  0.00470000  0.70710000  1
  H  H14  1  0.37230000  0.39840000  0.21510000  1
  H  H15  1  0.49510000  0.24200000  0.70150000  1
  H  H16  1  0.50490000  0.75800000  0.20150000  1
  H  H17  1  0.62770000  0.60160000  0.71510000  1
  H  H18  1  0.64800000  0.99530000  0.20710000  1
  H  H19  1  0.72910000  0.24740000  0.36980000  1
  H  H20  1  0.77090000  0.74740000  0.36980000  1
  H  H21  1  0.85200000  0.49530000  0.20710000  1
  H  H22  1  0.87230000  0.10160000  0.71510000  1
  H  H23  1  0.99510000  0.25800000  0.20150000  1
  C  C24  1  0.02210000  0.18390000  0.20470000  1
  C  C25  1  0.04130000  0.90280000  0.67420000  1
  C  C26  1  0.05170000  0.66280000  0.90430000  1
  C  C27  1  0.08700000  0.26870000  0.75650000  1
  C  C28  1  0.10070000  0.97250000  0.21230000  1
  C  C29  1  0.12650000  0.15710000  0.24000000  1
  C  C30  1  0.13560000  0.64410000  0.84250000  1
  C  C31  1  0.16100000  0.88350000  0.63610000  1
  C  C32  1  0.16980000  0.55920000  0.73940000  1
  C  C33  1  0.17790000  0.61980000  0.47100000  1
  C  C34  1  0.19360000  0.19200000  0.77480000  1
  C  C35  1  0.20050000  0.06750000  0.44690000  1
  C  C36  1  0.20360000  0.24690000  0.27540000  1
  C  C37  1  0.24310000  0.70490000  0.83500000  1
  C  C38  1  0.25690000  0.20490000  0.83500000  1
  C  C39  1  0.29640000  0.74690000  0.27540000  1
  C  C40  1  0.29950000  0.56750000  0.44690000  1
  C  C41  1  0.30640000  0.69200000  0.77480000  1
  C  C42  1  0.32210000  0.11980000  0.47100000  1
  C  C43  1  0.33020000  0.05920000  0.73940000  1
  C  C44  1  0.33900000  0.38350000  0.63610000  1
  C  C45  1  0.36440000  0.14410000  0.84250000  1
  C  C46  1  0.37350000  0.65710000  0.24000000  1
  C  C47  1  0.39930000  0.47250000  0.21230000  1
  C  C48  1  0.41300000  0.76870000  0.75650000  1
  C  C49  1  0.44830000  0.16280000  0.90430000  1
  C  C50  1  0.45870000  0.40280000  0.67420000  1
  C  C51  1  0.47790000  0.68390000  0.20470000  1
  C  C52  1  0.52210000  0.31610000  0.70470000  1
  C  C53  1  0.54130000  0.59720000  0.17420000  1
  C  C54  1  0.55170000  0.83720000  0.40430000  1
  C  C55  1  0.58700000  0.23130000  0.25650000  1
  C  C56  1  0.60070000  0.52750000  0.71230000  1
  C  C57  1  0.62650000  0.34290000  0.74000000  1
  C  C58  1  0.63560000  0.85590000  0.34250000  1
  C  C59  1  0.66100000  0.61650000  0.13610000  1
  C  C60  1  0.66980000  0.94080000  0.23940000  1
  C  C61  1  0.67790000  0.88020000  0.97100000  1
  C  C62  1  0.69360000  0.30800000  0.27480000  1
  C  C63  1  0.70050000  0.43250000  0.94690000  1
  C  C64  1  0.70360000  0.25310000  0.77540000  1
  C  C65  1  0.74310000  0.79510000  0.33500000  1
  C  C66  1  0.75690000  0.29510000  0.33500000  1
  C  C67  1  0.79640000  0.75310000  0.77540000  1
  C  C68  1  0.79950000  0.93250000  0.94690000  1
  C  C69  1  0.80640000  0.80800000  0.27480000  1
  C  C70  1  0.82210000  0.38020000  0.97100000  1
  C  C71  1  0.83020000  0.44080000  0.23940000  1
  C  C72  1  0.83900000  0.11650000  0.13610000  1
  C  C73  1  0.86440000  0.35590000  0.34250000  1
  C  C74  1  0.87350000  0.84290000  0.74000000  1
  C  C75  1  0.89930000  0.02750000  0.71230000  1
  C  C76  1  0.91300000  0.73130000  0.25650000  1
  C  C77  1  0.94830000  0.33720000  0.40430000  1
  C  C78  1  0.95870000  0.09720000  0.17420000  1
  C  C79  1  0.97790000  0.81610000  0.70470000  1
  N  N80  1  0.00110000  0.00910000  0.67570000  1
  N  N81  1  0.09840000  0.57040000  0.79400000  1
  N  N82  1  0.16700000  0.04960000  0.24520000  1
  N  N83  1  0.22960000  0.11890000  0.72620000  1
  N  N84  1  0.27040000  0.61890000  0.72620000  1
  N  N85  1  0.33300000  0.54960000  0.24520000  1
  N  N86  1  0.40160000  0.07040000  0.79400000  1
  N  N87  1  0.49890000  0.50910000  0.67570000  1
  N  N88  1  0.50110000  0.49090000  0.17570000  1
  N  N89  1  0.59840000  0.92960000  0.29400000  1
  N  N90  1  0.66700000  0.45040000  0.74520000  1
  N  N91  1  0.72960000  0.38110000  0.22620000  1
  N  N92  1  0.77040000  0.88110000  0.22620000  1
  N  N93  1  0.83300000  0.95040000  0.74520000  1
  N  N94  1  0.90160000  0.42960000  0.29400000  1
  N  N95  1  0.99890000  0.99090000  0.17570000  1
  O  O96  1  0.04420000  0.39550000  0.40560000  1
  O  O97  1  0.04550000  0.26010000  0.69620000  1
  O  O98  1  0.05020000  0.33430000  0.80310000  1
  O  O99  1  0.08450000  0.73320000  0.94650000  1
  O  O100  1  0.09140000  0.62320000  0.42710000  1
  O  O101  1  0.10950000  0.08140000  0.48460000  1
  O  O102  1  0.16600000  0.34610000  0.27200000  1
  O  O103  1  0.17470000  0.65350000  0.53230000  1
  O  O104  1  0.20020000  0.71610000  0.30430000  1
  O  O105  1  0.20420000  0.01320000  0.39010000  1
  O  O106  1  0.20600000  0.96560000  0.60330000  1
  O  O107  1  0.20810000  0.78850000  0.64360000  1
  O  O108  1  0.29190000  0.28850000  0.64360000  1
  O  O109  1  0.29400000  0.46560000  0.60330000  1
  O  O110  1  0.29580000  0.51320000  0.39010000  1
  O  O111  1  0.29980000  0.21610000  0.30430000  1
  O  O112  1  0.32530000  0.15350000  0.53230000  1
  O  O113  1  0.33400000  0.84610000  0.27200000  1
  O  O114  1  0.39050000  0.58140000  0.48460000  1
  O  O115  1  0.40860000  0.12320000  0.42710000  1
  O  O116  1  0.41550000  0.23320000  0.94650000  1
  O  O117  1  0.44980000  0.83430000  0.80310000  1
  O  O118  1  0.45450000  0.76010000  0.69620000  1
  O  O119  1  0.45580000  0.89550000  0.40560000  1
  O  O120  1  0.54420000  0.10450000  0.90560000  1
  O  O121  1  0.54550000  0.23990000  0.19620000  1
  O  O122  1  0.55020000  0.16570000  0.30310000  1
  O  O123  1  0.58450000  0.76680000  0.44650000  1
  O  O124  1  0.59140000  0.87680000  0.92710000  1
  O  O125  1  0.60950000  0.41860000  0.98460000  1
  O  O126  1  0.66600000  0.15390000  0.77200000  1
  O  O127  1  0.67470000  0.84650000  0.03230000  1
  O  O128  1  0.70020000  0.78390000  0.80430000  1
  O  O129  1  0.70420000  0.48680000  0.89010000  1
  O  O130  1  0.70600000  0.53440000  0.10330000  1
  O  O131  1  0.70810000  0.71150000  0.14360000  1
  O  O132  1  0.79190000  0.21150000  0.14360000  1
  O  O133  1  0.79400000  0.03440000  0.10330000  1
  O  O134  1  0.79580000  0.98680000  0.89010000  1
  O  O135  1  0.79980000  0.28390000  0.80430000  1
  O  O136  1  0.82530000  0.34650000  0.03230000  1
  O  O137  1  0.83400000  0.65390000  0.77200000  1
  O  O138  1  0.89050000  0.91860000  0.98460000  1
  O  O139  1  0.90860000  0.37680000  0.92710000  1
  O  O140  1  0.91550000  0.26680000  0.44650000  1
  O  O141  1  0.94980000  0.66570000  0.30310000  1
  O  O142  1  0.95450000  0.73990000  0.19620000  1
  O  O143  1  0.95580000  0.60450000  0.90560000  1
