# generated using pymatgen
data_Mn3H80C63N8O9
_symmetry_space_group_name_H-M   'P 1'
_cell_length_a   20.34500000
_cell_length_b   30.59170000
_cell_length_c   30.59168405
_cell_angle_alpha   115.23198517
_cell_angle_beta   102.80785498
_cell_angle_gamma   102.80800000
_symmetry_Int_Tables_number   1
_chemical_formula_structural   Mn3H80C63N8O9
_chemical_formula_sum   'Mn18 H480 C378 N48 O54'
_cell_volume   15678.71234374
_cell_formula_units_Z   6
loop_
 _symmetry_equiv_pos_site_id
 _symmetry_equiv_pos_as_xyz
  1  'x, y, z'
loop_
 _atom_site_type_symbol
 _atom_site_label
 _atom_site_symmetry_multiplicity
 _atom_site_fract_x
 _atom_site_fract_y
 _atom_site_fract_z
 _atom_site_occupancy
  Mn  Mn0  1  0.61101000  0.17753000  0.55557000  1
  Mn  Mn1  1  0.57388000  0.88153000  0.38363000  1
  Mn  Mn2  1  0.60968000  0.04810000  0.39175000  1
  Mn  Mn3  1  0.80975000  0.38363000  0.50210000  1
  Mn  Mn4  1  0.56652000  0.62196000  0.17753000  1
  Mn  Mn5  1  0.43842000  0.65635000  0.04810000  1
  Mn  Mn6  1  0.30765000  0.49790000  0.88153000  1
  Mn  Mn7  1  0.05544000  0.44443000  0.62196000  1
  Mn  Mn8  1  0.78207000  0.39175000  0.34365000  1
  Mn  Mn9  1  0.21793000  0.60825000  0.65635000  1
  Mn  Mn10  1  0.94456000  0.55557000  0.37804000  1
  Mn  Mn11  1  0.69235000  0.50210000  0.11847000  1
  Mn  Mn12  1  0.56158000  0.34365000  0.95190000  1
  Mn  Mn13  1  0.43348000  0.37804000  0.82247000  1
  Mn  Mn14  1  0.19025000  0.61637000  0.49790000  1
  Mn  Mn15  1  0.39032000  0.95190000  0.60825000  1
  Mn  Mn16  1  0.42612000  0.11847000  0.61637000  1
  Mn  Mn17  1  0.38899000  0.82247000  0.44443000  1
  H  H18  1  0.37120000  0.28080000  0.37090000  1
  H  H19  1  0.48870000  0.72630000  0.48330000  1
  H  H20  1  0.46910000  0.09060000  0.46160000  1
  H  H21  1  0.67960000  0.15330000  0.67190000  1
  H  H22  1  0.89570000  0.55360000  0.88580000  1
  H  H23  1  0.18460000  0.72900000  0.17340000  1
  H  H24  1  0.62890000  0.47860000  0.61640000  1
  H  H25  1  0.30690000  0.57900000  0.29360000  1
  H  H26  1  0.03850000  0.37560000  0.02420000  1
  H  H27  1  0.40530000  0.96190000  0.39080000  1
  H  H28  1  0.28960000  0.25870000  0.27480000  1
  H  H29  1  0.32210000  0.41560000  0.30610000  1
  H  H30  1  0.56040000  0.96310000  0.53990000  1
  H  H31  1  0.34810000  0.66620000  0.32700000  1
  H  H32  1  0.25580000  0.84430000  0.23270000  1
  H  H33  1  0.85770000  0.23400000  0.83090000  1
  H  H34  1  0.01480000  0.72520000  0.98390000  1
  H  H35  1  0.59990000  0.87510000  0.56820000  1
  H  H36  1  0.15830000  0.41710000  0.12100000  1
  H  H37  1  0.66290000  0.64860000  0.62440000  1
  H  H38  1  0.71560000  0.11300000  0.67620000  1
  H  H39  1  0.43500000  0.91830000  0.39330000  1
  H  H40  1  0.94020000  0.34450000  0.89740000  1
  H  H41  1  0.32350000  0.72800000  0.28060000  1
  H  H42  1  0.49070000  0.28630000  0.44650000  1
  H  H43  1  0.62330000  0.53360000  0.57820000  1
  H  H44  1  0.95150000  0.66300000  0.90600000  1
  H  H45  1  0.64820000  0.96660000  0.60240000  1
  H  H46  1  0.41730000  0.67390000  0.37060000  1
  H  H47  1  0.61800000  0.33150000  0.56970000  1
  H  H48  1  0.71150000  0.75700000  0.66300000  1
  H  H49  1  0.38080000  0.58190000  0.32880000  1
  H  H50  1  0.79020000  0.23020000  0.73660000  1
  H  H51  1  0.36490000  0.30730000  0.31020000  1
  H  H52  1  0.34140000  0.20590000  0.28560000  1
  H  H53  1  0.05470000  0.68980000  0.99710000  1
  H  H54  1  0.09140000  0.34590000  0.03320000  1
  H  H55  1  0.40430000  0.44710000  0.34450000  1
  H  H56  1  0.71130000  0.51530000  0.65110000  1
  H  H57  1  0.33110000  0.47050000  0.27070000  1
  H  H58  1  0.29710000  0.80630000  0.23590000  1
  H  H59  1  0.68410000  0.83930000  0.61600000  1
  H  H60  1  0.71360000  0.92450000  0.63640000  1
  H  H61  1  0.37670000  0.92090000  0.29950000  1
  H  H62  1  0.22830000  0.52790000  0.15030000  1
  H  H63  1  0.15130000  0.67750000  0.06520000  1
  H  H64  1  0.04510000  0.42180000  0.95540000  1
  H  H65  1  0.00030000  0.62910000  0.90990000  1
  H  H66  1  0.41570000  0.25360000  0.32520000  1
  H  H67  1  0.83190000  0.19280000  0.74100000  1
  H  H68  1  0.74550000  0.68730000  0.65410000  1
  H  H69  1  0.48750000  0.37650000  0.39460000  1
  H  H70  1  0.98400000  0.30610000  0.89050000  1
  H  H71  1  0.15110000  0.46440000  0.05630000  1
  H  H72  1  0.90080000  0.31170000  0.80570000  1
  H  H73  1  0.70780000  0.56380000  0.60890000  1
  H  H74  1  0.41090000  0.50600000  0.31170000  1
  H  H75  1  0.65790000  0.66780000  0.55360000  1
  H  H76  1  0.79240000  0.43970000  0.68620000  1
  H  H77  1  0.41170000  0.87920000  0.30070000  1
  H  H78  1  0.09290000  0.60540000  0.98190000  1
  H  H79  1  0.85450000  0.57000000  0.74350000  1
  H  H80  1  0.63960000  0.86800000  0.52730000  1
  H  H81  1  0.30830000  0.67840000  0.19280000  1
  H  H82  1  0.64690000  0.46030000  0.52970000  1
  H  H83  1  0.64540000  0.03070000  0.52780000  1
  H  H84  1  0.75060000  0.19720000  0.63220000  1
  H  H85  1  0.14470000  0.75360000  0.02330000  1
  H  H86  1  0.67800000  0.95550000  0.55560000  1
  H  H87  1  0.37840000  0.57020000  0.24840000  1
  H  H88  1  0.27860000  0.49380000  0.14660000  1
  H  H89  1  0.05580000  0.71440000  0.92030000  1
  H  H90  1  0.51030000  0.22990000  0.37210000  1
  H  H91  1  0.93960000  0.27070000  0.80020000  1
  H  H92  1  0.35870000  0.20780000  0.21650000  1
  H  H93  1  0.37630000  0.40310000  0.23400000  1
  H  H94  1  0.19940000  0.42940000  0.05560000  1
  H  H95  1  0.09890000  0.39110000  0.95490000  1
  H  H96  1  0.39110000  0.26970000  0.24640000  1
  H  H97  1  0.71550000  0.82650000  0.57000000  1
  H  H98  1  0.73810000  0.08280000  0.58970000  1
  H  H99  1  0.01250000  0.38360000  0.86220000  1
  H  H100  1  0.14220000  0.78350000  0.99130000  1
  H  H101  1  0.68670000  0.59190000  0.53560000  1
  H  H102  1  0.47380000  0.38770000  0.32250000  1
  H  H103  1  0.66720000  0.35030000  0.51580000  1
  H  H104  1  0.58830000  0.81000000  0.43480000  1
  H  H105  1  0.72280000  0.27770000  0.56790000  1
  H  H106  1  0.93190000  0.61600000  0.77670000  1
  H  H107  1  0.75220000  0.91540000  0.59510000  1
  H  H108  1  0.68090000  0.50830000  0.52280000  1
  H  H109  1  0.74120000  0.70390000  0.58290000  1
  H  H110  1  0.59900000  0.37970000  0.43850000  1
  H  H111  1  0.49670000  0.71950000  0.33610000  1
  H  H112  1  0.09050000  0.67480000  0.92840000  1
  H  H113  1  0.84290000  0.59510000  0.67970000  1
  H  H114  1  0.36090000  0.45180000  0.19280000  1
  H  H115  1  0.26040000  0.54820000  0.09040000  1
  H  H116  1  0.15810000  0.47720000  0.98550000  1
  H  H117  1  0.73140000  0.49400000  0.55870000  1
  H  H118  1  0.27580000  0.70940000  0.10290000  1
  H  H119  1  0.55620000  0.16800000  0.37400000  1
  H  H120  1  0.45560000  0.44440000  0.27100000  1
  H  H121  1  0.11720000  0.47030000  0.93060000  1
  H  H122  1  0.44170000  0.23820000  0.25360000  1
  H  H123  1  0.87000000  0.24840000  0.67820000  1
  H  H124  1  0.68050000  0.03130000  0.48610000  1
  H  H125  1  0.33170000  0.56470000  0.13630000  1
  H  H126  1  0.06020000  0.34890000  0.86420000  1
  H  H127  1  0.77000000  0.62620000  0.57060000  1
  H  H128  1  0.94800000  0.32880000  0.74690000  1
  H  H129  1  0.18810000  0.74640000  0.98460000  1
  H  H130  1  0.04420000  0.55350000  0.83980000  1
  H  H131  1  0.75700000  0.03910000  0.55000000  1
  H  H132  1  0.64730000  0.75350000  0.43970000  1
  H  H133  1  0.44000000  0.49360000  0.23020000  1
  H  H134  1  0.92280000  0.63640000  0.71190000  1
  H  H135  1  0.86800000  0.14660000  0.65280000  1
  H  H136  1  0.16050000  0.56150000  0.94120000  1
  H  H137  1  0.84650000  0.43480000  0.62480000  1
  H  H138  1  0.83940000  0.33610000  0.61660000  1
  H  H139  1  0.70040000  0.62240000  0.47210000  1
  H  H140  1  0.88770000  0.52730000  0.65930000  1
  H  H141  1  0.85620000  0.05560000  0.62620000  1
  H  H142  1  0.39420000  0.70580000  0.16150000  1
  H  H143  1  0.80460000  0.13630000  0.57160000  1
  H  H144  1  0.17270000  0.44130000  0.93530000  1
  H  H145  1  0.99460000  0.48330000  0.75700000  1
  H  H146  1  0.28210000  0.48910000  0.03910000  1
  H  H147  1  0.16320000  0.32030000  0.91540000  1
  H  H148  1  0.44660000  0.56500000  0.19720000  1
  H  H149  1  0.94180000  0.03320000  0.68730000  1
  H  H150  1  0.41150000  0.38840000  0.15570000  1
  H  H151  1  0.95330000  0.37060000  0.69670000  1
  H  H152  1  0.96270000  0.12100000  0.70390000  1
  H  H153  1  0.71220000  0.54220000  0.45180000  1
  H  H154  1  0.34470000  0.49310000  0.08280000  1
  H  H155  1  0.76260000  0.93530000  0.49400000  1
  H  H156  1  0.98670000  0.29360000  0.71460000  1
  H  H157  1  0.96830000  0.56820000  0.69310000  1
  H  H158  1  0.56640000  0.39350000  0.29060000  1
  H  H159  1  0.55490000  0.70980000  0.27770000  1
  H  H160  1  0.87760000  0.55560000  0.60010000  1
  H  H161  1  0.49390000  0.78180000  0.21630000  1
  H  H162  1  0.78480000  0.65280000  0.50620000  1
  H  H163  1  0.13820000  0.62790000  0.85780000  1
  H  H164  1  0.79300000  0.55000000  0.51090000  1
  H  H165  1  0.39740000  0.43680000  0.11300000  1
  H  H166  1  0.11100000  0.25650000  0.82650000  1
  H  H167  1  0.21090000  0.28810000  0.92450000  1
  H  H168  1  0.04830000  0.43030000  0.76180000  1
  H  H169  1  0.83000000  0.09040000  0.54220000  1
  H  H170  1  0.72240000  0.21630000  0.43450000  1
  H  H171  1  0.04550000  0.09400000  0.75700000  1
  H  H172  1  0.80400000  0.86420000  0.51530000  1
  H  H173  1  0.03090000  0.01610000  0.74130000  1
  H  H174  1  0.85600000  0.95490000  0.56380000  1
  H  H175  1  0.49080000  0.42960000  0.19370000  1
  H  H176  1  0.92200000  0.15030000  0.62240000  1
  H  H177  1  0.72790000  0.71460000  0.42100000  1
  H  H178  1  0.62990000  0.51440000  0.32160000  1
  H  H179  1  0.76730000  0.16150000  0.45570000  1
  H  H180  1  0.90520000  0.05630000  0.59190000  1
  H  H181  1  0.15520000  0.22330000  0.83930000  1
  H  H182  1  0.15140000  0.48420000  0.83450000  1
  H  H183  1  0.97890000  0.32700000  0.66080000  1
  H  H184  1  0.95420000  0.60240000  0.63580000  1
  H  H185  1  0.82740000  0.98550000  0.50830000  1
  H  H186  1  0.35080000  0.54520000  0.03130000  1
  H  H187  1  0.47370000  0.48140000  0.15330000  1
  H  H188  1  0.27750000  0.39990000  0.95550000  1
  H  H189  1  0.90650000  0.89050000  0.58440000  1
  H  H190  1  0.59550000  0.55260000  0.27200000  1
  H  H191  1  0.86060000  0.80020000  0.52950000  1
  H  H192  1  0.76700000  0.57160000  0.43530000  1
  H  H193  1  0.68310000  0.83450000  0.35030000  1
  H  H194  1  0.98570000  0.02420000  0.64860000  1
  H  H195  1  0.13550000  0.07970000  0.79410000  1
  H  H196  1  0.00990000  0.11420000  0.66780000  1
  H  H197  1  0.85160000  0.58970000  0.50690000  1
  H  H198  1  0.68190000  0.66080000  0.33380000  1
  H  H199  1  0.80560000  0.48610000  0.45480000  1
  H  H200  1  0.31840000  0.36420000  0.96660000  1
  H  H201  1  0.10620000  0.31380000  0.75350000  1
  H  H202  1  0.81340000  0.93060000  0.46030000  1
  H  H203  1  0.38530000  0.50290000  0.03070000  1
  H  H204  1  0.15090000  0.00870000  0.79220000  1
  H  H205  1  0.22840000  0.34070000  0.86800000  1
  H  H206  1  0.90910000  0.74100000  0.54820000  1
  H  H207  1  0.05760000  0.00290000  0.69270000  1
  H  H208  1  0.88450000  0.19280000  0.51440000  1
  H  H209  1  0.84970000  0.86220000  0.47860000  1
  H  H210  1  0.09040000  0.09010000  0.71920000  1
  H  H211  1  0.97320000  0.83090000  0.59690000  1
  H  H212  1  0.45580000  0.37860000  0.07910000  1
  H  H213  1  0.91030000  0.95540000  0.53360000  1
  H  H214  1  0.80820000  0.67820000  0.42980000  1
  H  H215  1  0.00750000  0.53840000  0.62900000  1
  H  H216  1  0.79890000  0.74690000  0.41810000  1
  H  H217  1  0.71350000  0.76180000  0.33150000  1
  H  H218  1  0.88240000  0.52780000  0.49710000  1
  H  H219  1  0.18220000  0.62600000  0.79400000  1
  H  H220  1  0.12140000  0.97670000  0.73030000  1
  H  H221  1  0.68840000  0.45570000  0.29420000  1
  H  H222  1  0.96060000  0.67620000  0.56320000  1
  H  H223  1  0.27520000  0.30690000  0.87510000  1
  H  H224  1  0.78070000  0.94120000  0.37970000  1
  H  H225  1  0.97950000  0.53990000  0.57680000  1
  H  H226  1  0.95720000  0.89740000  0.55290000  1
  H  H227  1  0.95710000  0.28060000  0.55260000  1
  H  H228  1  0.44340000  0.42890000  0.03810000  1
  H  H229  1  0.90490000  0.80570000  0.49400000  1
  H  H230  1  0.02310000  0.76730000  0.61160000  1
  H  H231  1  0.53250000  0.42150000  0.12080000  1
  H  H232  1  0.22170000  0.37520000  0.81000000  1
  H  H233  1  0.16210000  0.07160000  0.74640000  1
  H  H234  1  0.74340000  0.69670000  0.32610000  1
  H  H235  1  0.82710000  0.10290000  0.39350000  1
  H  H236  1  0.51670000  0.47500000  0.08170000  1
  H  H237  1  0.40270000  0.42320000  0.96310000  1
  H  H238  1  0.94640000  0.73660000  0.50640000  1
  H  H239  1  0.20350000  0.01540000  0.76180000  1
  H  H240  1  0.01450000  0.60920000  0.57110000  1
  H  H241  1  0.61180000  0.79400000  0.16800000  1
  H  H242  1  0.15490000  0.43210000  0.70980000  1
  H  H243  1  0.88160000  0.63220000  0.43500000  1
  H  H244  1  0.01120000  0.82660000  0.55560000  1
  H  H245  1  0.07720000  0.70050000  0.62140000  1
  H  H246  1  0.88900000  0.30070000  0.42150000  1
  H  H247  1  0.37850000  0.37100000  0.90940000  1
  H  H248  1  0.99230000  0.67190000  0.51860000  1
  H  H249  1  0.08610000  0.93480000  0.61230000  1
  H  H250  1  0.95830000  0.39330000  0.47500000  1
  H  H251  1  0.11100000  0.01810000  0.62350000  1
  H  H252  1  0.76240000  0.75700000  0.27370000  1
  H  H253  1  0.71960000  0.85780000  0.22990000  1
  H  H254  1  0.20440000  0.16020000  0.71370000  1
  H  H255  1  0.06120000  0.76410000  0.57040000  1
  H  H256  1  0.71210000  0.43450000  0.21820000  1
  H  H257  1  0.77720000  0.61660000  0.28050000  1
  H  H258  1  0.22280000  0.38340000  0.71950000  1
  H  H259  1  0.28790000  0.56550000  0.78180000  1
  H  H260  1  0.93880000  0.23590000  0.42960000  1
  H  H261  1  0.79560000  0.83980000  0.28630000  1
  H  H262  1  0.28040000  0.14220000  0.77010000  1
  H  H263  1  0.23760000  0.24300000  0.72630000  1
  H  H264  1  0.88900000  0.98190000  0.37650000  1
  H  H265  1  0.04170000  0.60670000  0.52500000  1
  H  H266  1  0.91390000  0.06520000  0.38770000  1
  H  H267  1  0.00770000  0.32810000  0.48140000  1
  H  H268  1  0.62150000  0.62900000  0.09060000  1
  H  H269  1  0.11100000  0.69930000  0.57850000  1
  H  H270  1  0.92280000  0.29950000  0.37860000  1
  H  H271  1  0.98880000  0.17340000  0.44440000  1
  H  H272  1  0.11840000  0.36780000  0.56500000  1
  H  H273  1  0.84510000  0.56790000  0.29020000  1
  H  H274  1  0.38820000  0.20600000  0.83200000  1
  H  H275  1  0.98550000  0.39080000  0.42890000  1
  H  H276  1  0.79650000  0.98460000  0.23820000  1
  H  H277  1  0.05360000  0.26340000  0.49360000  1
  H  H278  1  0.59730000  0.57680000  0.03690000  1
  H  H279  1  0.48330000  0.52500000  0.91830000  1
  H  H280  1  0.17290000  0.89710000  0.60650000  1
  H  H281  1  0.25660000  0.30330000  0.67390000  1
  H  H282  1  0.83790000  0.92840000  0.25360000  1
  H  H283  1  0.77830000  0.62480000  0.19000000  1
  H  H284  1  0.46750000  0.57850000  0.87920000  1
  H  H285  1  0.97690000  0.23270000  0.38840000  1
  H  H286  1  0.09510000  0.19430000  0.50600000  1
  H  H287  1  0.55660000  0.57110000  0.96190000  1
  H  H288  1  0.04290000  0.71940000  0.44740000  1
  H  H289  1  0.04280000  0.10260000  0.44710000  1
  H  H290  1  0.02050000  0.46010000  0.42320000  1
  H  H291  1  0.21930000  0.05880000  0.62030000  1
  H  H292  1  0.72480000  0.69310000  0.12490000  1
  H  H293  1  0.03940000  0.32380000  0.43680000  1
  H  H294  1  0.31160000  0.54430000  0.70580000  1
  H  H295  1  0.87860000  0.02330000  0.26970000  1
  H  H296  1  0.81780000  0.37400000  0.20600000  1
  H  H297  1  0.11760000  0.47220000  0.50290000  1
  H  H298  1  0.28650000  0.23820000  0.66850000  1
  H  H299  1  0.20110000  0.25310000  0.58190000  1
  H  H300  1  0.99250000  0.46160000  0.37100000  1
  H  H301  1  0.19180000  0.32180000  0.57020000  1
  H  H302  1  0.08970000  0.04460000  0.46640000  1
  H  H303  1  0.54420000  0.62140000  0.92090000  1
  H  H304  1  0.02680000  0.16910000  0.40310000  1
  H  H305  1  0.90960000  0.90990000  0.28080000  1
  H  H306  1  0.15030000  0.13780000  0.52140000  1
  H  H307  1  0.11550000  0.80720000  0.48560000  1
  H  H308  1  0.94240000  0.99710000  0.30730000  1
  H  H309  1  0.09090000  0.25900000  0.45180000  1
  H  H310  1  0.77160000  0.65930000  0.13200000  1
  H  H311  1  0.84910000  0.99130000  0.20780000  1
  H  H312  1  0.61470000  0.49710000  0.96930000  1
  H  H313  1  0.18660000  0.06940000  0.53970000  1
  H  H314  1  0.89380000  0.68620000  0.24650000  1
  H  H315  1  0.68160000  0.63580000  0.03340000  1
  H  H316  1  0.19440000  0.51390000  0.54520000  1
  H  H317  1  0.31810000  0.33920000  0.66620000  1
  H  H318  1  0.14840000  0.41030000  0.49310000  1
  H  H319  1  0.99010000  0.88580000  0.33220000  1
  H  H320  1  0.86450000  0.92030000  0.20590000  1
  H  H321  1  0.01430000  0.97580000  0.35140000  1
  H  H322  1  0.31690000  0.16550000  0.64970000  1
  H  H323  1  0.23300000  0.42840000  0.56470000  1
  H  H324  1  0.13940000  0.19980000  0.47050000  1
  H  H325  1  0.40450000  0.44740000  0.72800000  1
  H  H326  1  0.09350000  0.10950000  0.41560000  1
  H  H327  1  0.72250000  0.60010000  0.04450000  1
  H  H328  1  0.52630000  0.51860000  0.84670000  1
  H  H329  1  0.64920000  0.45480000  0.96870000  1
  H  H330  1  0.17260000  0.01450000  0.49170000  1
  H  H331  1  0.04580000  0.39760000  0.36420000  1
  H  H332  1  0.02110000  0.67300000  0.33920000  1
  H  H333  1  0.84860000  0.51580000  0.16550000  1
  H  H334  1  0.84480000  0.77670000  0.16070000  1
  H  H335  1  0.09480000  0.94370000  0.40810000  1
  H  H336  1  0.23270000  0.83850000  0.54430000  1
  H  H337  1  0.37010000  0.48560000  0.67840000  1
  H  H338  1  0.27210000  0.28540000  0.57900000  1
  H  H339  1  0.07800000  0.84970000  0.37760000  1
  H  H340  1  0.50920000  0.57040000  0.80630000  1
  H  H341  1  0.14400000  0.04510000  0.43620000  1
  H  H342  1  0.96910000  0.98390000  0.25870000  1
  H  H343  1  0.19600000  0.13580000  0.48470000  1
  H  H344  1  0.95450000  0.90600000  0.24300000  1
  H  H345  1  0.27760000  0.78370000  0.56550000  1
  H  H346  1  0.17000000  0.90960000  0.45780000  1
  H  H347  1  0.95170000  0.56970000  0.23820000  1
  H  H348  1  0.78910000  0.71190000  0.07550000  1
  H  H349  1  0.88900000  0.74350000  0.17350000  1
  H  H350  1  0.60260000  0.56320000  0.88700000  1
  H  H351  1  0.20700000  0.45000000  0.48910000  1
  H  H352  1  0.86180000  0.37210000  0.14220000  1
  H  H353  1  0.21520000  0.34720000  0.49380000  1
  H  H354  1  0.50610000  0.21820000  0.78370000  1
  H  H355  1  0.12240000  0.44440000  0.39990000  1
  H  H356  1  0.44510000  0.29020000  0.72230000  1
  H  H357  1  0.43360000  0.60650000  0.70940000  1
  H  H358  1  0.03170000  0.43180000  0.30690000  1
  H  H359  1  0.01330000  0.70640000  0.28540000  1
  H  H360  1  0.23740000  0.06470000  0.50600000  1
  H  H361  1  0.65530000  0.50690000  0.91720000  1
  H  H362  1  0.28780000  0.45780000  0.54820000  1
  H  H363  1  0.03730000  0.87900000  0.29610000  1
  H  H364  1  0.04670000  0.62940000  0.30330000  1
  H  H365  1  0.58850000  0.61160000  0.84430000  1
  H  H366  1  0.05820000  0.96680000  0.31270000  1
  H  H367  1  0.55340000  0.43500000  0.80280000  1
  H  H368  1  0.83680000  0.67970000  0.08460000  1
  H  H369  1  0.71790000  0.51090000  0.96090000  1
  H  H370  1  0.00540000  0.51670000  0.24300000  1
  H  H371  1  0.82730000  0.55870000  0.06470000  1
  H  H372  1  0.19540000  0.86370000  0.42840000  1
  H  H373  1  0.60580000  0.29420000  0.83850000  1
  H  H374  1  0.14380000  0.94440000  0.37380000  1
  H  H375  1  0.11230000  0.47270000  0.34070000  1
  H  H376  1  0.29960000  0.37760000  0.52790000  1
  H  H377  1  0.16060000  0.66390000  0.38340000  1
  H  H378  1  0.15350000  0.56520000  0.37520000  1
  H  H379  1  0.83950000  0.43850000  0.05880000  1
  H  H380  1  0.13200000  0.85340000  0.34720000  1
  H  H381  1  0.07720000  0.36360000  0.28810000  1
  H  H382  1  0.56000000  0.50640000  0.76980000  1
  H  H383  1  0.35270000  0.24650000  0.56030000  1
  H  H384  1  0.24300000  0.96090000  0.45000000  1
  H  H385  1  0.95580000  0.44650000  0.16020000  1
  H  H386  1  0.81190000  0.25360000  0.01540000  1
  H  H387  1  0.05200000  0.67120000  0.25310000  1
  H  H388  1  0.23000000  0.37380000  0.42940000  1
  H  H389  1  0.93980000  0.65110000  0.13580000  1
  H  H390  1  0.66830000  0.43530000  0.86370000  1
  H  H391  1  0.31950000  0.96870000  0.51390000  1
  H  H392  1  0.13000000  0.75160000  0.32180000  1
  H  H393  1  0.55830000  0.76180000  0.74640000  1
  H  H394  1  0.88280000  0.52970000  0.06940000  1
  H  H395  1  0.54440000  0.55560000  0.72900000  1
  H  H396  1  0.44380000  0.83200000  0.62600000  1
  H  H397  1  0.72420000  0.29060000  0.89710000  1
  H  H398  1  0.26860000  0.50600000  0.44130000  1
  H  H399  1  0.84190000  0.52280000  0.01450000  1
  H  H400  1  0.73960000  0.45180000  0.90960000  1
  H  H401  1  0.63910000  0.54820000  0.80720000  1
  H  H402  1  0.15710000  0.40490000  0.32030000  1
  H  H403  1  0.90950000  0.32520000  0.07160000  1
  H  H404  1  0.50330000  0.28050000  0.66390000  1
  H  H405  1  0.40100000  0.62030000  0.56150000  1
  H  H406  1  0.25880000  0.29610000  0.41710000  1
  H  H407  1  0.31910000  0.49170000  0.47720000  1
  H  H408  1  0.24780000  0.08460000  0.40490000  1
  H  H409  1  0.06810000  0.38400000  0.22330000  1
  H  H410  1  0.27720000  0.72230000  0.43210000  1
  H  H411  1  0.41170000  0.19000000  0.56520000  1
  H  H412  1  0.33280000  0.64970000  0.48420000  1
  H  H413  1  0.52620000  0.61230000  0.67750000  1
  H  H414  1  0.31330000  0.40810000  0.46440000  1
  H  H415  1  0.85780000  0.21650000  0.00870000  1
  H  H416  1  0.98750000  0.61640000  0.13780000  1
  H  H417  1  0.26190000  0.91720000  0.41030000  1
  H  H418  1  0.28450000  0.17350000  0.43000000  1
  H  H419  1  0.60890000  0.73030000  0.75360000  1
  H  H420  1  0.90110000  0.60890000  0.04510000  1
  H  H421  1  0.80060000  0.57060000  0.94440000  1
  H  H422  1  0.62370000  0.59690000  0.76600000  1
  H  H423  1  0.64130000  0.79220000  0.78350000  1
  H  H424  1  0.06040000  0.72930000  0.19980000  1
  H  H425  1  0.48970000  0.77010000  0.62790000  1
  H  H426  1  0.94420000  0.28560000  0.07970000  1
  H  H427  1  0.72140000  0.50620000  0.85340000  1
  H  H428  1  0.62160000  0.42980000  0.75160000  1
  H  H429  1  0.32200000  0.04450000  0.44440000  1
  H  H430  1  0.85530000  0.24640000  0.97670000  1
  H  H431  1  0.24940000  0.80280000  0.36780000  1
  H  H432  1  0.35460000  0.96930000  0.47220000  1
  H  H433  1  0.35310000  0.53970000  0.47030000  1
  H  H434  1  0.69170000  0.32160000  0.80720000  1
  H  H435  1  0.36040000  0.13200000  0.47270000  1
  H  H436  1  0.14550000  0.43000000  0.25650000  1
  H  H437  1  0.90710000  0.39460000  0.01810000  1
  H  H438  1  0.58830000  0.12080000  0.69930000  1
  H  H439  1  0.20760000  0.56030000  0.31380000  1
  H  H440  1  0.34210000  0.33220000  0.44640000  1
  H  H441  1  0.58910000  0.49400000  0.68830000  1
  H  H442  1  0.29220000  0.43620000  0.39110000  1
  H  H443  1  0.09920000  0.68830000  0.19430000  1
  H  H444  1  0.84890000  0.53560000  0.94370000  1
  H  H445  1  0.01600000  0.69390000  0.10950000  1
  H  H446  1  0.51250000  0.62350000  0.60540000  1
  H  H447  1  0.25450000  0.31270000  0.34590000  1
  H  H448  1  0.16810000  0.80720000  0.25900000  1
  H  H449  1  0.58430000  0.74640000  0.67480000  1
  H  H450  1  0.99970000  0.37090000  0.09010000  1
  H  H451  1  0.95490000  0.57820000  0.04460000  1
  H  H452  1  0.84870000  0.32250000  0.93480000  1
  H  H453  1  0.77170000  0.47210000  0.84970000  1
  H  H454  1  0.62330000  0.07910000  0.70050000  1
  H  H455  1  0.28640000  0.07550000  0.36360000  1
  H  H456  1  0.31590000  0.16070000  0.38400000  1
  H  H457  1  0.70290000  0.19370000  0.76410000  1
  H  H458  1  0.66890000  0.52950000  0.72930000  1
  H  H459  1  0.28870000  0.48470000  0.34890000  1
  H  H460  1  0.59570000  0.55290000  0.65550000  1
  H  H461  1  0.90860000  0.65410000  0.96680000  1
  H  H462  1  0.94530000  0.31020000  0.00290000  1
  H  H463  1  0.65860000  0.79410000  0.71440000  1
  H  H464  1  0.63510000  0.69270000  0.68980000  1
  H  H465  1  0.20980000  0.76980000  0.26340000  1
  H  H466  1  0.61920000  0.41810000  0.67120000  1
  H  H467  1  0.28850000  0.24300000  0.33700000  1
  H  H468  1  0.38200000  0.66850000  0.43030000  1
  H  H469  1  0.58270000  0.32610000  0.62940000  1
  H  H470  1  0.35180000  0.03340000  0.39760000  1
  H  H471  1  0.04850000  0.33700000  0.09400000  1
  H  H472  1  0.37670000  0.46640000  0.42180000  1
  H  H473  1  0.50930000  0.71370000  0.55350000  1
  H  H474  1  0.67650000  0.27200000  0.71940000  1
  H  H475  1  0.05980000  0.65550000  0.10260000  1
  H  H476  1  0.56500000  0.08170000  0.60670000  1
  H  H477  1  0.28440000  0.88700000  0.32380000  1
  H  H478  1  0.33710000  0.35140000  0.37560000  1
  H  H479  1  0.84170000  0.58290000  0.87900000  1
  H  H480  1  0.40010000  0.12490000  0.43180000  1
  H  H481  1  0.98520000  0.27480000  0.01610000  1
  H  H482  1  0.14230000  0.76600000  0.16910000  1
  H  H483  1  0.74420000  0.15570000  0.76730000  1
  H  H484  1  0.65190000  0.33380000  0.67300000  1
  H  H485  1  0.43960000  0.03690000  0.46010000  1
  H  H486  1  0.67790000  0.58440000  0.69390000  1
  H  H487  1  0.71040000  0.74130000  0.72520000  1
  H  H488  1  0.59470000  0.03810000  0.60920000  1
  H  H489  1  0.96150000  0.62440000  0.97580000  1
  H  H490  1  0.69310000  0.42100000  0.70640000  1
  H  H491  1  0.37110000  0.52140000  0.38360000  1
  H  H492  1  0.81540000  0.27100000  0.82660000  1
  H  H493  1  0.10430000  0.44640000  0.11420000  1
  H  H494  1  0.32040000  0.84670000  0.32810000  1
  H  H495  1  0.53090000  0.90940000  0.53840000  1
  H  H496  1  0.51130000  0.27370000  0.51670000  1
  H  H497  1  0.62880000  0.71920000  0.62910000  1
  C  C498  1  0.31240000  0.86560000  0.30920000  1
  C  C499  1  0.26760000  0.82570000  0.25130000  1
  C  C500  1  0.06790000  0.36980000  0.05040000  1
  C  C501  1  0.34670000  0.60030000  0.32780000  1
  C  C502  1  0.67430000  0.72440000  0.65390000  1
  C  C503  1  0.66350000  0.51440000  0.63340000  1
  C  C504  1  0.33590000  0.27300000  0.30370000  1
  C  C505  1  0.12840000  0.42370000  0.09580000  1
  C  C506  1  0.36040000  0.45040000  0.32680000  1
  C  C507  1  0.84560000  0.25200000  0.81170000  1
  C  C508  1  0.52330000  0.25330000  0.48820000  1
  C  C509  1  0.56772000  0.93002000  0.53134000  1
  C  C510  1  0.80210000  0.21220000  0.75580000  1
  C  C511  1  0.38400000  0.65060000  0.33420000  1
  C  C512  1  0.97960000  0.65390000  0.92950000  1
  C  C513  1  0.68420000  0.39290000  0.62920000  1
  C  C514  1  0.43040000  0.93841000  0.37529000  1
  C  C515  1  0.50860000  0.26000000  0.44610000  1
  C  C516  1  0.03220000  0.69630000  0.96930000  1
  C  C517  1  0.55504000  0.21879000  0.49193000  1
  C  C518  1  0.38478000  0.90068000  0.31696000  1
  C  C519  1  0.69810000  0.68060000  0.63020000  1
  C  C520  1  0.43044000  0.80568000  0.35724000  1
  C  C521  1  0.64000000  0.94100000  0.56620000  1
  C  C522  1  0.66070000  0.36080000  0.58360000  1
  C  C523  1  0.66910000  0.52950000  0.59160000  1
  C  C524  1  0.37210000  0.24070000  0.29460000  1
  C  C525  1  0.55412000  0.90126000  0.47430000  1
  C  C526  1  0.64240000  0.89160000  0.56250000  1
  C  C527  1  0.37650000  0.46990000  0.29020000  1
  C  C528  1  0.96640000  0.32680000  0.87640000  1
  C  C529  1  0.35970000  0.73820000  0.26830000  1
  C  C530  1  0.91370000  0.29020000  0.82030000  1
  C  C531  1  0.17970000  0.45330000  0.07760000  1
  C  C532  1  0.71060000  0.89920000  0.60170000  1
  C  C533  1  0.76490000  0.42090000  0.65010000  1
  C  C534  1  0.72100000  0.85370000  0.60460000  1
  C  C535  1  0.52110000  0.22690000  0.40240000  1
  C  C536  1  0.56610000  0.18552000  0.44738000  1
  C  C537  1  0.42154000  0.78124000  0.30218000  1
  C  C538  1  0.50291000  0.96941000  0.38272000  1
  C  C539  1  0.24730000  0.50470000  0.12670000  1
  C  C540  1  0.70470000  0.67210000  0.57630000  1
  C  C541  1  0.42690000  0.64625000  0.29805000  1
  C  C542  1  0.07750000  0.70540000  0.94610000  1
  C  C543  1  0.17860000  0.66060000  0.04700000  1
  C  C544  1  0.65208000  0.09360000  0.51944000  1
  C  C545  1  0.88360000  0.60460000  0.75090000  1
  C  C546  1  0.34960000  0.70890000  0.21540000  1
  C  C547  1  0.68320000  0.49520000  0.54700000  1
  C  C548  1  0.07750000  0.40840000  0.93790000  1
  C  C549  1  0.77040000  0.22510000  0.62710000  1
  C  C550  1  0.52630000  0.38080000  0.38250000  1
  C  C551  1  0.39280000  0.23900000  0.24860000  1
  C  C552  1  0.54863000  0.19050000  0.40379000  1
  C  C553  1  0.14380000  0.61750000  0.99830000  1
  C  C554  1  0.69680000  0.36700000  0.55130000  1
  C  C555  1  0.59237000  0.14348000  0.44403000  1
  C  C556  1  0.03010000  0.36660000  0.88100000  1
  C  C557  1  0.14420000  0.75140000  0.99040000  1
  C  C558  1  0.40640000  0.44030000  0.25200000  1
  C  C559  1  0.41500000  0.60080000  0.25620000  1
  C  C560  1  0.67964000  0.05311000  0.52081000  1
  C  C561  1  0.75350000  0.27110000  0.59070000  1
  C  C562  1  0.48210000  0.68650000  0.30610000  1
  C  C563  1  0.51800000  0.38640000  0.33940000  1
  C  C564  1  0.72640000  0.62430000  0.54670000  1
  C  C565  1  0.79600000  0.41730000  0.61350000  1
  C  C566  1  0.25250000  0.67930000  0.06970000  1
  C  C567  1  0.59220000  0.38150000  0.40760000  1
  C  C568  1  0.84120000  0.25620000  0.65540000  1
  C  C569  1  0.29260000  0.53430000  0.10550000  1
  C  C570  1  0.13620000  0.45300000  0.94820000  1
  C  C571  1  0.89110000  0.60170000  0.70250000  1
  C  C572  1  0.47251000  0.79821000  0.28362000  1
  C  C573  1  0.74730000  0.07120000  0.55690000  1
  C  C574  1  0.41010000  0.45640000  0.21220000  1
  C  C575  1  0.40050000  0.72530000  0.19690000  1
  C  C576  1  0.62130000  0.80380000  0.41730000  1
  C  C577  1  0.82400000  0.30610000  0.61960000  1
  C  C578  1  0.18460000  0.59240000  0.97390000  1
  C  C579  1  0.87115000  0.29805000  0.65180000  1
  C  C580  1  0.45470000  0.59800000  0.22510000  1
  C  C581  1  0.46046000  0.76986000  0.22962000  1
  C  C582  1  0.65600000  0.77080000  0.42090000  1
  C  C583  1  0.81290000  0.10550000  0.57120000  1
  C  C584  1  0.51760000  0.68040000  0.27110000  1
  C  C585  1  0.74260000  0.62200000  0.49530000  1
  C  C586  1  0.29343000  0.65468000  0.04491000  1
  C  C587  1  0.06250000  0.55390000  0.81390000  1
  C  C588  1  0.92010000  0.56250000  0.67090000  1
  C  C589  1  0.57320000  0.39040000  0.32070000  1
  C  C590  1  0.32390000  0.51430000  0.07120000  1
  C  C591  1  0.98110000  0.32780000  0.72750000  1
  C  C592  1  0.87940000  0.12670000  0.62200000  1
  C  C593  1  0.64824000  0.38457000  0.38965000  1
  C  C594  1  0.25859000  0.61035000  0.99492000  1
  C  C595  1  0.95020000  0.33420000  0.68360000  1
  C  C596  1  0.44190000  0.42560000  0.17430000  1
  C  C597  1  0.03510000  0.51180000  0.76510000  1
  C  C598  1  0.89790000  0.07760000  0.62430000  1
  C  C599  1  0.13270000  0.24910000  0.85370000  1
  C  C600  1  0.66878000  0.96545000  0.38419000  1
  C  C601  1  0.18860000  0.29750000  0.89920000  1
  C  C602  1  0.05500000  0.37080000  0.76370000  1
  C  C603  1  0.75830000  0.57120000  0.46570000  1
  C  C604  1  0.63875000  0.39023000  0.34532000  1
  C  C605  1  0.11870000  0.59760000  0.82450000  1
  C  C606  1  0.96740000  0.09580000  0.67210000  1
  C  C607  1  0.71541000  0.38419000  0.41874000  1
  C  C608  1  0.07710000  0.41640000  0.77720000  1
  C  C609  1  0.92620000  0.56620000  0.62520000  1
  C  C610  1  0.98250000  0.05040000  0.68060000  1
  C  C611  1  0.67020000  0.81570000  0.36700000  1
  C  C612  1  0.76916000  0.22962000  0.45976000  1
  C  C613  1  0.44680000  0.44360000  0.13440000  1
  C  C614  1  0.70870000  0.76370000  0.39290000  1
  C  C615  1  0.81200000  0.94820000  0.49520000  1
  C  C616  1  0.37347000  0.53230000  0.05311000  1
  C  C617  1  0.80960000  0.55690000  0.48570000  1
  C  C618  1  0.79640000  0.19690000  0.47160000  1
  C  C619  1  0.05010000  0.07050000  0.72440000  1
  C  C620  1  0.81111000  0.28362000  0.48541000  1
  C  C621  1  0.14550000  0.44870000  0.81570000  1
  C  C622  1  0.86040000  0.93790000  0.52950000  1
  C  C623  1  0.29667000  0.58126000  0.96545000  1
  C  C624  1  0.06290000  0.03070000  0.72700000  1
  C  C625  1  0.06311000  0.50807000  0.72686000  1
  C  C626  1  0.85090000  0.88100000  0.51440000  1
  C  C627  1  0.70010000  0.77720000  0.36080000  1
  C  C628  1  0.11480000  0.34990000  0.77080000  1
  C  C629  1  0.74640000  0.72750000  0.39970000  1
  C  C630  1  0.92018000  0.47430000  0.57304000  1
  C  C631  1  0.44152000  0.57416000  0.09360000  1
  C  C632  1  0.64070000  0.50650000  0.29110000  1
  C  C633  1  0.73633000  0.99492000  0.38457000  1
  C  C634  1  0.24920000  0.32910000  0.89160000  1
  C  C635  1  0.14484000  0.59621000  0.78671000  1
  C  C636  1  0.86580000  0.21540000  0.50650000  1
  C  C637  1  0.62150000  0.53010000  0.26180000  1
  C  C638  1  0.88064000  0.30218000  0.52094000  1
  C  C639  1  0.30100000  0.37480000  0.94100000  1
  C  C640  1  0.91000000  0.87640000  0.54960000  1
  C  C641  1  0.75148000  0.04491000  0.39023000  1
  C  C642  1  0.96362000  0.53134000  0.60132000  1
  C  C643  1  0.13140000  0.05390000  0.75930000  1
  C  C644  1  0.84117000  0.52081000  0.46770000  1
  C  C645  1  0.92680000  0.35724000  0.55156000  1
  C  C646  1  0.90660000  0.82030000  0.53010000  1
  C  C647  1  0.90860000  0.26830000  0.53010000  1
  C  C648  1  0.18250000  0.38650000  0.80380000  1
  C  C649  1  0.11872000  0.55262000  0.73814000  1
  C  C650  1  0.73340000  0.68360000  0.34940000  1
  C  C651  1  0.48410000  0.41628000  0.09932000  1
  C  C652  1  0.15380000  0.00960000  0.76100000  1
  C  C653  1  0.67520000  0.47160000  0.27470000  1
  C  C654  1  0.96610000  0.81170000  0.55970000  1
  C  C655  1  0.55111000  0.69945000  0.14348000  1
  C  C656  1  0.78930000  0.97390000  0.38150000  1
  C  C657  1  0.95370000  0.75580000  0.54360000  1
  C  C658  1  0.81420000  0.65540000  0.39920000  1
  C  C659  1  0.64030000  0.52094000  0.21876000  1
  C  C660  1  0.81720000  0.06970000  0.39040000  1
  C  C661  1  0.78065000  0.65180000  0.35375000  1
  C  C662  1  0.49199000  0.43688000  0.06159000  1
  C  C663  1  0.62476000  0.55156000  0.19432000  1
  C  C664  1  0.36230000  0.39868000  0.93002000  1
  C  C665  1  0.61942000  0.73814000  0.18552000  1
  C  C666  1  0.86736000  0.51944000  0.42584000  1
  C  C667  1  0.01630000  0.74870000  0.57440000  1
  C  C668  1  0.66375000  0.72686000  0.21879000  1
  C  C669  1  0.34714000  0.42696000  0.90126000  1
  C  C670  1  0.00320000  0.69080000  0.55640000  1
  C  C671  1  0.14834000  0.55597000  0.69945000  1
  C  C672  1  0.64187000  0.78671000  0.19050000  1
  C  C673  1  0.85670000  0.62710000  0.40200000  1
  C  C674  1  0.69060000  0.45976000  0.23014000  1
  C  C675  1  0.87981000  0.38272000  0.41331000  1
  C  C676  1  0.67430000  0.48541000  0.20179000  1
  C  C677  1  0.85450000  0.99830000  0.38080000  1
  C  C678  1  0.73000000  0.76510000  0.25330000  1
  C  C679  1  0.70580000  0.82450000  0.22690000  1
  C  C680  1  0.86840000  0.04700000  0.38640000  1
  C  C681  1  0.79560000  0.61960000  0.31350000  1
  C  C682  1  0.16280000  0.40930000  0.68040000  1
  C  C683  1  0.06782000  0.68304000  0.58372000  1
  C  C684  1  0.75140000  0.81390000  0.26000000  1
  C  C685  1  0.05511000  0.62471000  0.56312000  1
  C  C686  1  0.46650000  0.58669000  0.96941000  1
  C  C687  1  0.53350000  0.41331000  0.03059000  1
  C  C688  1  0.94489000  0.37529000  0.43688000  1
  C  C689  1  0.24860000  0.18610000  0.74000000  1
  C  C690  1  0.93218000  0.31696000  0.41628000  1
  C  C691  1  0.83720000  0.59070000  0.31960000  1
  C  C692  1  0.20440000  0.38040000  0.68650000  1
  C  C693  1  0.13160000  0.95300000  0.61360000  1
  C  C694  1  0.29420000  0.17550000  0.77310000  1
  C  C695  1  0.27000000  0.23490000  0.74670000  1
  C  C696  1  0.14550000  0.00170000  0.61920000  1
  C  C697  1  0.32570000  0.51459000  0.79821000  1
  C  C698  1  0.12019000  0.61728000  0.58669000  1
  C  C699  1  0.30940000  0.54024000  0.76986000  1
  C  C700  1  0.14330000  0.37290000  0.59800000  1
  C  C701  1  0.35813000  0.21329000  0.80950000  1
  C  C702  1  0.85166000  0.44403000  0.30055000  1
  C  C703  1  0.99680000  0.30920000  0.44360000  1
  C  C704  1  0.65286000  0.57304000  0.09874000  1
  C  C705  1  0.33625000  0.27314000  0.78121000  1
  C  C706  1  0.98370000  0.25130000  0.42560000  1
  C  C707  1  0.13264000  0.48056000  0.57416000  1
  C  C708  1  0.38058000  0.26186000  0.81448000  1
  C  C709  1  0.63770000  0.60132000  0.06998000  1
  C  C710  1  0.37524000  0.44844000  0.80568000  1
  C  C711  1  0.50801000  0.56312000  0.93841000  1
  C  C712  1  0.21935000  0.34820000  0.64625000  1
  C  C713  1  0.18280000  0.93030000  0.60960000  1
  C  C714  1  0.35970000  0.47906000  0.78124000  1
  C  C715  1  0.18580000  0.34460000  0.60080000  1
  C  C716  1  0.04630000  0.24420000  0.45640000  1
  C  C717  1  0.21070000  0.02610000  0.61850000  1
  C  C718  1  0.44889000  0.30055000  0.85652000  1
  C  C719  1  0.03390000  0.18830000  0.44030000  1
  C  C720  1  0.32480000  0.52840000  0.72530000  1
  C  C721  1  0.84620000  0.99040000  0.23900000  1
  C  C722  1  0.51590000  0.58372000  0.90068000  1
  C  C723  1  0.26660000  0.31640000  0.65060000  1
  C  C724  1  0.88128000  0.44738000  0.26186000  1
  C  C725  1  0.81750000  0.61350000  0.19620000  1
  C  C726  1  0.09140000  0.73170000  0.46990000  1
  C  C727  1  0.09340000  0.17970000  0.46990000  1
  C  C728  1  0.07320000  0.64276000  0.44844000  1
  C  C729  1  0.15883000  0.47919000  0.53230000  1
  C  C730  1  0.86860000  0.94610000  0.24070000  1
  C  C731  1  0.03638000  0.46866000  0.39868000  1
  C  C732  1  0.24852000  0.95509000  0.60977000  1
  C  C733  1  0.09000000  0.12360000  0.45040000  1
  C  C734  1  0.69900000  0.62520000  0.05900000  1
  C  C735  1  0.11936000  0.69782000  0.47906000  1
  C  C736  1  0.37850000  0.46990000  0.73820000  1
  C  C737  1  0.13420000  0.78460000  0.49350000  1
  C  C738  1  0.85516000  0.40379000  0.21329000  1
  C  C739  1  0.75080000  0.67090000  0.10840000  1
  C  C740  1  0.26367000  0.00508000  0.61543000  1
  C  C741  1  0.35930000  0.49350000  0.70890000  1
  C  C742  1  0.55848000  0.42584000  0.90640000  1
  C  C743  1  0.07982000  0.52570000  0.42696000  1
  C  C744  1  0.25360000  0.27250000  0.60030000  1
  C  C745  1  0.88520000  0.65010000  0.22920000  1
  C  C746  1  0.29990000  0.22280000  0.63920000  1
  C  C747  1  0.14910000  0.11900000  0.48560000  1
  C  C748  1  0.93689000  0.49193000  0.27314000  1
  C  C749  1  0.93710000  0.96930000  0.27300000  1
  C  C750  1  0.70333000  0.41874000  0.03455000  1
  C  C751  1  0.13960000  0.06210000  0.47050000  1
  C  C752  1  0.85450000  0.55130000  0.18430000  1
  C  C753  1  0.18889000  0.71638000  0.51459000  1
  C  C754  1  0.94990000  0.92950000  0.27560000  1
  C  C755  1  0.20360000  0.80310000  0.52840000  1
  C  C756  1  0.19040000  0.44310000  0.51430000  1
  C  C757  1  0.62653000  0.46770000  0.94689000  1
  C  C758  1  0.18800000  0.05180000  0.50480000  1
  C  C759  1  0.29130000  0.23630000  0.60710000  1
  C  C760  1  0.55320000  0.55640000  0.86560000  1
  C  C761  1  0.23084000  0.77038000  0.54024000  1
  C  C762  1  0.32980000  0.18430000  0.63300000  1
  C  C763  1  0.01750000  0.94960000  0.31940000  1
  C  C764  1  0.07380000  0.43380000  0.37480000  1
  C  C765  1  0.92290000  0.58360000  0.22280000  1
  C  C766  1  0.28459000  0.61581000  0.58126000  1
  C  C767  1  0.03260000  0.90420000  0.32790000  1
  C  C768  1  0.88130000  0.40240000  0.17550000  1
  C  C769  1  0.36125000  0.60977000  0.65468000  1
  C  C770  1  0.24170000  0.42880000  0.53430000  1
  C  C771  1  0.94500000  0.62920000  0.23630000  1
  C  C772  1  0.81140000  0.70250000  0.10080000  1
  C  C773  1  0.33122000  0.03455000  0.61581000  1
  C  C774  1  0.86730000  0.75090000  0.14630000  1
  C  C775  1  0.10210000  0.92240000  0.37570000  1
  C  C776  1  0.96490000  0.48820000  0.23490000  1
  C  C777  1  0.55810000  0.57440000  0.82570000  1
  C  C778  1  0.04980000  0.66580000  0.31640000  1
  C  C779  1  0.74141000  0.38965000  0.00508000  1
  C  C780  1  0.35176000  0.61543000  0.61035000  1
  C  C781  1  0.12060000  0.87330000  0.37800000  1
  C  C782  1  0.01890000  0.67220000  0.27250000  1
  C  C783  1  0.67610000  0.48570000  0.92880000  1
  C  C784  1  0.42680000  0.60960000  0.67930000  1
  C  C785  1  0.07990000  0.43750000  0.32910000  1
  C  C786  1  0.93750000  0.44610000  0.18610000  1
  C  C787  1  0.70657000  0.34532000  0.95509000  1
  C  C788  1  0.25740000  0.37800000  0.50470000  1
  C  C789  1  0.48240000  0.31960000  0.72890000  1
  C  C790  1  0.18710000  0.89450000  0.42880000  1
  C  C791  1  0.34400000  0.22920000  0.57910000  1
  C  C792  1  0.53954000  0.23014000  0.77038000  1
  C  C793  1  0.54530000  0.40200000  0.77490000  1
  C  C794  1  0.12885000  0.70195000  0.34820000  1
  C  C795  1  0.81540000  0.40760000  0.02610000  1
  C  C796  1  0.17600000  0.69390000  0.38040000  1
  C  C797  1  0.37870000  0.19620000  0.58270000  1
  C  C798  1  0.59950000  0.27470000  0.80310000  1
  C  C799  1  0.58990000  0.54360000  0.78780000  1
  C  C800  1  0.25270000  0.92880000  0.44310000  1
  C  C801  1  0.52749000  0.20179000  0.71638000  1
  C  C802  1  0.10890000  0.39830000  0.29750000  1
  C  C803  1  0.86380000  0.54700000  0.05180000  1
  C  C804  1  0.70740000  0.46570000  0.89450000  1
  C  C805  1  0.15880000  0.74380000  0.34460000  1
  C  C806  1  0.40780000  0.61850000  0.59240000  1
  C  C807  1  0.74750000  0.32070000  0.93030000  1
  C  C808  1  0.20400000  0.58270000  0.38650000  1
  C  C809  1  0.27360000  0.37570000  0.45330000  1
  C  C810  1  0.48200000  0.61360000  0.66060000  1
  C  C811  1  0.51790000  0.31350000  0.69390000  1
  C  C812  1  0.24650000  0.72890000  0.40930000  1
  C  C813  1  0.32036000  0.94689000  0.47919000  1
  C  C814  1  0.58500000  0.39920000  0.74380000  1
  C  C815  1  0.59360000  0.55970000  0.74800000  1
  C  C816  1  0.85580000  0.24860000  0.00960000  1
  C  C817  1  0.96990000  0.63340000  0.11900000  1
  C  C818  1  0.40763000  0.85652000  0.55597000  1
  C  C819  1  0.30320000  0.63300000  0.44870000  1
  C  C820  1  0.85620000  0.38250000  0.00170000  1
  C  C821  1  0.45137000  0.80950000  0.59621000  1
  C  C822  1  0.60720000  0.76100000  0.75140000  1
  C  C823  1  0.47370000  0.61920000  0.61750000  1
  C  C824  1  0.22960000  0.77490000  0.37290000  1
  C  C825  1  0.92250000  0.59160000  0.06210000  1
  C  C826  1  0.31680000  0.50480000  0.45300000  1
  C  C827  1  0.65040000  0.29110000  0.78460000  1
  C  C828  1  0.11640000  0.39540000  0.24910000  1
  C  C829  1  0.34792000  0.90640000  0.48056000  1
  C  C830  1  0.82140000  0.33940000  0.95300000  1
  C  C831  1  0.92250000  0.29460000  0.05390000  1
  C  C832  1  0.57310000  0.35375000  0.70195000  1
  C  C833  1  0.29530000  0.32790000  0.42370000  1
  C  C834  1  0.75270000  0.49530000  0.87330000  1
  C  C835  1  0.49709000  0.03059000  0.61728000  1
  C  C836  1  0.57846000  0.21876000  0.69782000  1
  C  C837  1  0.43390000  0.81448000  0.55262000  1
  C  C838  1  0.47890000  0.77310000  0.59760000  1
  C  C839  1  0.27900000  0.14630000  0.39540000  1
  C  C840  1  0.23510000  0.57910000  0.34990000  1
  C  C841  1  0.28940000  0.10080000  0.39830000  1
  C  C842  1  0.82030000  0.54670000  0.92240000  1
  C  C843  1  0.08630000  0.70980000  0.17970000  1
  C  C844  1  0.64030000  0.26180000  0.73170000  1
  C  C845  1  0.03360000  0.67320000  0.12360000  1
  C  C846  1  0.62350000  0.53010000  0.70980000  1
  C  C847  1  0.35760000  0.10840000  0.43750000  1
  C  C848  1  0.44588000  0.09874000  0.52570000  1
  C  C849  1  0.62790000  0.75930000  0.70540000  1
  C  C850  1  0.33090000  0.47050000  0.40840000  1
  C  C851  1  0.33930000  0.63920000  0.41640000  1
  C  C852  1  0.36000000  0.05900000  0.43380000  1
  C  C853  1  0.56956000  0.19432000  0.64276000  1
  C  C854  1  0.30190000  0.31940000  0.36980000  1
  C  C855  1  0.61522000  0.09932000  0.68304000  1
  C  C856  1  0.44496000  0.78121000  0.50807000  1
  C  C857  1  0.96780000  0.30370000  0.03070000  1
  C  C858  1  0.49140000  0.74000000  0.55390000  1
  C  C859  1  0.56960000  0.06159000  0.62471000  1
  C  C860  1  0.31580000  0.60710000  0.37080000  1
  C  C861  1  0.02040000  0.34610000  0.07050000  1
  C  C862  1  0.61600000  0.34940000  0.66580000  1
  C  C863  1  0.19790000  0.78780000  0.24420000  1
  C  C864  1  0.43228000  0.06998000  0.46866000  1
  C  C865  1  0.47670000  0.74670000  0.51180000  1
  C  C866  1  0.15440000  0.74800000  0.18830000  1
  C  C867  1  0.63960000  0.54960000  0.67320000  1
  C  C868  1  0.87160000  0.57630000  0.90420000  1
  C  C869  1  0.66410000  0.72700000  0.69630000  1
  C  C870  1  0.33650000  0.48560000  0.36660000  1
  C  C871  1  0.32570000  0.27560000  0.34610000  1
  C  C872  1  0.65330000  0.39970000  0.67220000  1
  C  C873  1  0.93210000  0.63020000  0.94960000  1
  C  C874  1  0.73240000  0.17430000  0.74870000  1
  C  C875  1  0.68760000  0.13440000  0.69080000  1
  N  N876  1  0.49401000  0.86410000  0.44363000  1
  N  N877  1  0.49018000  0.84548000  0.39136000  1
  N  N878  1  0.61128000  0.13838000  0.48576000  1
  N  N879  1  0.72863000  0.23176000  0.59323000  1
  N  N880  1  0.63542000  0.09657000  0.47729000  1
  N  N881  1  0.55356000  0.95060000  0.38368000  1
  N  N882  1  0.75544000  0.38881000  0.56051000  1
  N  N883  1  0.61660000  0.98374000  0.38636000  1
  N  N884  1  0.63337000  0.82830000  0.38881000  1
  N  N885  1  0.50313000  0.63853000  0.23176000  1
  N  N886  1  0.90118000  0.39136000  0.54588000  1
  N  N887  1  0.46115000  0.61928000  0.09657000  1
  N  N888  1  0.19493000  0.43949000  0.82830000  1
  N  N889  1  0.76976000  0.38636000  0.40262000  1
  N  N890  1  0.94962000  0.44363000  0.57953000  1
  N  N891  1  0.36714000  0.59738000  0.98374000  1
  N  N892  1  0.52710000  0.65262000  0.13838000  1
  N  N893  1  0.83012000  0.38368000  0.43308000  1
  N  N894  1  0.39704000  0.56692000  0.95060000  1
  N  N895  1  0.84187000  0.47729000  0.38072000  1
  N  N896  1  0.12552000  0.51424000  0.65262000  1
  N  N897  1  0.64470000  0.54588000  0.15452000  1
  N  N898  1  0.62991000  0.57953000  0.13590000  1
  N  N899  1  0.13540000  0.40677000  0.63853000  1
  N  N900  1  0.86460000  0.59323000  0.36147000  1
  N  N901  1  0.37009000  0.42047000  0.86410000  1
  N  N902  1  0.35530000  0.45412000  0.84548000  1
  N  N903  1  0.87448000  0.48576000  0.34738000  1
  N  N904  1  0.15813000  0.52271000  0.61928000  1
  N  N905  1  0.60296000  0.43308000  0.04940000  1
  N  N906  1  0.16988000  0.61632000  0.56692000  1
  N  N907  1  0.47290000  0.34738000  0.86162000  1
  N  N908  1  0.63286000  0.40262000  0.01626000  1
  N  N909  1  0.05038000  0.55637000  0.42047000  1
  N  N910  1  0.23024000  0.61364000  0.59738000  1
  N  N911  1  0.80507000  0.56051000  0.17170000  1
  N  N912  1  0.53885000  0.38072000  0.90343000  1
  N  N913  1  0.09882000  0.60864000  0.45412000  1
  N  N914  1  0.49687000  0.36147000  0.76824000  1
  N  N915  1  0.36663000  0.17170000  0.61119000  1
  N  N916  1  0.38340000  0.01626000  0.61364000  1
  N  N917  1  0.24456000  0.61119000  0.43949000  1
  N  N918  1  0.44644000  0.04940000  0.61632000  1
  N  N919  1  0.36458000  0.90343000  0.52271000  1
  N  N920  1  0.27137000  0.76824000  0.40677000  1
  N  N921  1  0.38872000  0.86162000  0.51424000  1
  N  N922  1  0.50982000  0.15452000  0.60864000  1
  N  N923  1  0.50599000  0.13590000  0.55637000  1
  O  O924  1  0.38232000  0.78686000  0.37120000  1
  O  O925  1  0.57473000  0.22053000  0.53756000  1
  O  O926  1  0.64528000  0.12564000  0.56150000  1
  O  O927  1  0.51256000  0.01495000  0.38563000  1
  O  O928  1  0.60421000  0.91776000  0.45897000  1
  O  O929  1  0.59450000  0.11200000  0.40090000  1
  O  O930  1  0.53359000  0.83947000  0.31250000  1
  O  O931  1  0.71925000  0.38195000  0.46040000  1
  O  O932  1  0.66270000  0.92155000  0.38195000  1
  O  O933  1  0.36480000  0.67510000  0.06880000  1
  O  O934  1  0.77891000  0.31250000  0.47303000  1
  O  O935  1  0.70400000  0.06880000  0.39370000  1
  O  O936  1  0.85476000  0.45897000  0.54121000  1
  O  O937  1  0.25885000  0.53960000  0.92155000  1
  O  O938  1  0.03717000  0.46244000  0.68297000  1
  O  O939  1  0.48036000  0.56414000  0.12564000  1
  O  O940  1  0.68970000  0.39370000  0.32490000  1
  O  O941  1  0.59546000  0.58434000  0.21314000  1
  O  O942  1  0.31355000  0.45879000  0.91776000  1
  O  O943  1  0.98888000  0.37120000  0.58434000  1
  O  O944  1  0.51750000  0.71110000  0.11200000  1
  O  O945  1  0.64580000  0.68297000  0.22053000  1
  O  O946  1  0.30588000  0.52697000  0.83947000  1
  O  O947  1  0.91622000  0.56150000  0.43586000  1
  O  O948  1  0.19360000  0.59910000  0.71110000  1
  O  O949  1  0.50239000  0.62932000  0.01495000  1
  O  O950  1  0.12693000  0.61437000  0.62932000  1
  O  O951  1  0.87307000  0.38563000  0.37068000  1
  O  O952  1  0.49761000  0.37068000  0.98505000  1
  O  O953  1  0.80640000  0.40090000  0.28890000  1
  O  O954  1  0.08378000  0.43850000  0.56414000  1
  O  O955  1  0.69412000  0.47303000  0.16053000  1
  O  O956  1  0.35420000  0.31703000  0.77947000  1
  O  O957  1  0.48250000  0.28890000  0.88800000  1
  O  O958  1  0.01112000  0.62880000  0.41566000  1
  O  O959  1  0.68645000  0.54121000  0.08224000  1
  O  O960  1  0.40454000  0.41566000  0.78686000  1
  O  O961  1  0.31030000  0.60630000  0.67510000  1
  O  O962  1  0.51964000  0.43586000  0.87436000  1
  O  O963  1  0.96283000  0.53756000  0.31703000  1
  O  O964  1  0.74115000  0.46040000  0.07845000  1
  O  O965  1  0.14524000  0.54103000  0.45879000  1
  O  O966  1  0.29600000  0.93120000  0.60630000  1
  O  O967  1  0.22109000  0.68750000  0.52697000  1
  O  O968  1  0.63520000  0.32490000  0.93120000  1
  O  O969  1  0.33730000  0.07845000  0.61805000  1
  O  O970  1  0.28075000  0.61805000  0.53960000  1
  O  O971  1  0.46641000  0.16053000  0.68750000  1
  O  O972  1  0.40550000  0.88800000  0.59910000  1
  O  O973  1  0.39579000  0.08224000  0.54103000  1
  O  O974  1  0.48744000  0.98505000  0.61437000  1
  O  O975  1  0.35472000  0.87436000  0.43850000  1
  O  O976  1  0.42527000  0.77947000  0.46244000  1
  O  O977  1  0.61768000  0.21314000  0.62880000  1
