# generated using pymatgen
data_CuH24C25(NO)4
_symmetry_space_group_name_H-M   'P 1'
_cell_length_a   9.52680000
_cell_length_b   9.52680000
_cell_length_c   23.40100000
_cell_angle_alpha   90.00000000
_cell_angle_beta   90.00000000
_cell_angle_gamma   90.00000000
_symmetry_Int_Tables_number   1
_chemical_formula_structural   CuH24C25(NO)4
_chemical_formula_sum   'Cu2 H48 C50 N8 O8'
_cell_volume   2123.87284673
_cell_formula_units_Z   2
loop_
 _symmetry_equiv_pos_site_id
 _symmetry_equiv_pos_as_xyz
  1  'x, y, z'
loop_
 _atom_site_type_symbol
 _atom_site_label
 _atom_site_symmetry_multiplicity
 _atom_site_fract_x
 _atom_site_fract_y
 _atom_site_fract_z
 _atom_site_occupancy
  Cu  Cu0  1  0.00000000  0.50000000  0.25000000  1
  Cu  Cu1  1  0.50000000  0.00000000  0.75000000  1
  H  H2  1  0.00260000  0.16440000  0.94130000  1
  H  H3  1  0.04280000  0.80150000  0.28310000  1
  H  H4  1  0.04820000  0.31800000  0.14930000  1
  H  H5  1  0.07240000  0.16830000  0.65230000  1
  H  H6  1  0.12110000  0.17960000  0.98790000  1
  H  H7  1  0.16440000  0.99740000  0.05870000  1
  H  H8  1  0.16830000  0.92760000  0.34770000  1
  H  H9  1  0.17960000  0.87890000  0.01210000  1
  H  H10  1  0.18010000  0.29950000  0.58290000  1
  H  H11  1  0.18200000  0.45180000  0.35070000  1
  H  H12  1  0.19850000  0.04280000  0.71690000  1
  H  H13  1  0.20050000  0.31990000  0.91710000  1
  H  H14  1  0.29950000  0.81990000  0.41710000  1
  H  H15  1  0.30150000  0.54280000  0.21690000  1
  H  H16  1  0.31800000  0.95180000  0.85070000  1
  H  H17  1  0.31990000  0.79950000  0.08290000  1
  H  H18  1  0.32040000  0.37890000  0.51210000  1
  H  H19  1  0.33170000  0.42760000  0.84770000  1
  H  H20  1  0.33560000  0.49740000  0.55870000  1
  H  H21  1  0.37890000  0.67960000  0.48790000  1
  H  H22  1  0.42760000  0.66830000  0.15230000  1
  H  H23  1  0.45180000  0.81800000  0.64930000  1
  H  H24  1  0.45720000  0.30150000  0.78310000  1
  H  H25  1  0.49740000  0.66440000  0.44130000  1
  H  H26  1  0.50260000  0.33560000  0.44130000  1
  H  H27  1  0.54280000  0.69850000  0.78310000  1
  H  H28  1  0.54820000  0.18200000  0.64930000  1
  H  H29  1  0.57240000  0.33170000  0.15230000  1
  H  H30  1  0.62110000  0.32040000  0.48790000  1
  H  H31  1  0.66440000  0.50260000  0.55870000  1
  H  H32  1  0.66830000  0.57240000  0.84770000  1
  H  H33  1  0.67960000  0.62110000  0.51210000  1
  H  H34  1  0.68010000  0.20050000  0.08290000  1
  H  H35  1  0.68200000  0.04820000  0.85070000  1
  H  H36  1  0.69850000  0.45720000  0.21690000  1
  H  H37  1  0.70050000  0.18010000  0.41710000  1
  H  H38  1  0.79950000  0.68010000  0.91710000  1
  H  H39  1  0.80150000  0.95720000  0.71690000  1
  H  H40  1  0.81800000  0.54820000  0.35070000  1
  H  H41  1  0.81990000  0.70050000  0.58290000  1
  H  H42  1  0.82040000  0.12110000  0.01210000  1
  H  H43  1  0.83170000  0.07240000  0.34770000  1
  H  H44  1  0.83560000  0.00260000  0.05870000  1
  H  H45  1  0.87890000  0.82040000  0.98790000  1
  H  H46  1  0.92760000  0.83170000  0.65230000  1
  H  H47  1  0.95180000  0.68200000  0.14930000  1
  H  H48  1  0.95720000  0.19850000  0.28310000  1
  H  H49  1  0.99740000  0.83560000  0.94130000  1
  C  C50  1  0.00000000  0.00000000  0.00000000  1
  C  C51  1  0.04930000  0.67980000  0.15020000  1
  C  C52  1  0.07170000  0.11350000  0.96361000  1
  C  C53  1  0.09750000  0.75510000  0.31007000  1
  C  C54  1  0.11350000  0.92830000  0.03639000  1
  C  C55  1  0.12330000  0.75710000  0.11022000  1
  C  C56  1  0.16990000  0.17190000  0.65092000  1
  C  C57  1  0.17190000  0.83010000  0.34908000  1
  C  C58  1  0.17980000  0.54930000  0.34980000  1
  C  C59  1  0.23260000  0.25120000  0.61000000  1
  C  C60  1  0.24290000  0.12330000  0.88978000  1
  C  C61  1  0.24490000  0.09750000  0.68993000  1
  C  C62  1  0.24880000  0.26740000  0.89000000  1
  C  C63  1  0.25120000  0.76740000  0.39000000  1
  C  C64  1  0.25510000  0.59750000  0.18993000  1
  C  C65  1  0.25710000  0.62330000  0.38978000  1
  C  C66  1  0.26740000  0.75120000  0.11000000  1
  C  C67  1  0.32020000  0.04930000  0.84980000  1
  C  C68  1  0.32810000  0.33010000  0.84908000  1
  C  C69  1  0.33010000  0.67190000  0.15092000  1
  C  C70  1  0.37670000  0.25710000  0.61022000  1
  C  C71  1  0.38650000  0.42830000  0.53639000  1
  C  C72  1  0.40250000  0.25510000  0.81007000  1
  C  C73  1  0.42830000  0.61350000  0.46361000  1
  C  C74  1  0.45070000  0.17980000  0.65020000  1
  C  C75  1  0.50000000  0.50000000  0.50000000  1
  C  C76  1  0.54930000  0.82020000  0.65020000  1
  C  C77  1  0.57170000  0.38650000  0.46361000  1
  C  C78  1  0.59750000  0.74490000  0.81007000  1
  C  C79  1  0.61350000  0.57170000  0.53639000  1
  C  C80  1  0.62330000  0.74290000  0.61022000  1
  C  C81  1  0.66990000  0.32810000  0.15092000  1
  C  C82  1  0.67190000  0.66990000  0.84908000  1
  C  C83  1  0.67980000  0.95070000  0.84980000  1
  C  C84  1  0.73260000  0.24880000  0.11000000  1
  C  C85  1  0.74290000  0.37670000  0.38978000  1
  C  C86  1  0.74490000  0.40250000  0.18993000  1
  C  C87  1  0.74880000  0.23260000  0.39000000  1
  C  C88  1  0.75120000  0.73260000  0.89000000  1
  C  C89  1  0.75510000  0.90250000  0.68993000  1
  C  C90  1  0.75710000  0.87670000  0.88978000  1
  C  C91  1  0.76740000  0.74880000  0.61000000  1
  C  C92  1  0.82020000  0.45070000  0.34980000  1
  C  C93  1  0.82810000  0.16990000  0.34908000  1
  C  C94  1  0.83010000  0.82810000  0.65092000  1
  C  C95  1  0.87670000  0.24290000  0.11022000  1
  C  C96  1  0.88650000  0.07170000  0.03639000  1
  C  C97  1  0.90250000  0.24490000  0.31007000  1
  C  C98  1  0.92830000  0.88650000  0.96361000  1
  C  C99  1  0.95070000  0.32020000  0.15020000  1
  N  N100  1  0.10260000  0.61270000  0.31027000  1
  N  N101  1  0.11270000  0.60260000  0.18973000  1
  N  N102  1  0.38730000  0.10260000  0.68973000  1
  N  N103  1  0.39740000  0.11270000  0.81027000  1
  N  N104  1  0.60260000  0.88730000  0.81027000  1
  N  N105  1  0.61270000  0.89740000  0.68973000  1
  N  N106  1  0.88730000  0.39740000  0.18973000  1
  N  N107  1  0.89740000  0.38730000  0.31027000  1
  O  O108  1  0.04220000  0.83170000  0.07328000  1
  O  O109  1  0.16830000  0.04220000  0.92672000  1
  O  O110  1  0.33170000  0.54220000  0.42672000  1
  O  O111  1  0.45780000  0.33170000  0.57328000  1
  O  O112  1  0.54220000  0.66830000  0.57328000  1
  O  O113  1  0.66830000  0.45780000  0.42672000  1
  O  O114  1  0.83170000  0.95780000  0.92672000  1
  O  O115  1  0.95780000  0.16830000  0.07328000  1
