# generated using pymatgen
data_In3H18C30N9O13
_symmetry_space_group_name_H-M   'P 1'
_cell_length_a   13.81000000
_cell_length_b   13.81000000
_cell_length_c   18.33000000
_cell_angle_alpha   90.00000000
_cell_angle_beta   90.00000000
_cell_angle_gamma   120.00000000
_symmetry_Int_Tables_number   1
_chemical_formula_structural   In3H18C30N9O13
_chemical_formula_sum   'In6 H36 C60 N18 O26'
_cell_volume   3027.47422107
_cell_formula_units_Z   2
loop_
 _symmetry_equiv_pos_site_id
 _symmetry_equiv_pos_as_xyz
  1  'x, y, z'
loop_
 _atom_site_type_symbol
 _atom_site_label
 _atom_site_symmetry_multiplicity
 _atom_site_fract_x
 _atom_site_fract_y
 _atom_site_fract_z
 _atom_site_occupancy
  In  In0  1  0.75119000  0.24881000  0.75000000  1
  In  In1  1  0.75119000  0.50238000  0.75000000  1
  In  In2  1  0.50238000  0.75119000  0.25000000  1
  In  In3  1  0.49762000  0.24881000  0.75000000  1
  In  In4  1  0.24881000  0.49762000  0.25000000  1
  In  In5  1  0.24881000  0.75119000  0.25000000  1
  H  H6  1  0.95790000  0.33460000  0.94330000  1
  H  H7  1  0.95790000  0.33460000  0.55670000  1
  H  H8  1  0.95790000  0.62330000  0.94330000  1
  H  H9  1  0.95790000  0.62330000  0.55670000  1
  H  H10  1  0.86080000  0.13920000  0.85170000  1
  H  H11  1  0.86080000  0.13920000  0.64830000  1
  H  H12  1  0.86080000  0.72160000  0.85170000  1
  H  H13  1  0.86080000  0.72160000  0.64830000  1
  H  H14  1  0.72160000  0.86080000  0.35170000  1
  H  H15  1  0.72160000  0.86080000  0.14830000  1
  H  H16  1  0.66540000  0.04210000  0.94330000  1
  H  H17  1  0.66540000  0.04210000  0.55670000  1
  H  H18  1  0.66540000  0.62330000  0.94330000  1
  H  H19  1  0.66540000  0.62330000  0.55670000  1
  H  H20  1  0.62330000  0.66540000  0.44330000  1
  H  H21  1  0.62330000  0.66540000  0.05670000  1
  H  H22  1  0.62330000  0.95790000  0.44330000  1
  H  H23  1  0.62330000  0.95790000  0.05670000  1
  H  H24  1  0.37670000  0.04210000  0.94330000  1
  H  H25  1  0.37670000  0.04210000  0.55670000  1
  H  H26  1  0.37670000  0.33460000  0.94330000  1
  H  H27  1  0.37670000  0.33460000  0.55670000  1
  H  H28  1  0.33460000  0.37670000  0.44330000  1
  H  H29  1  0.33460000  0.37670000  0.05670000  1
  H  H30  1  0.33460000  0.95790000  0.44330000  1
  H  H31  1  0.33460000  0.95790000  0.05670000  1
  H  H32  1  0.27840000  0.13920000  0.85170000  1
  H  H33  1  0.27840000  0.13920000  0.64830000  1
  H  H34  1  0.13920000  0.27840000  0.35170000  1
  H  H35  1  0.13920000  0.27840000  0.14830000  1
  H  H36  1  0.13920000  0.86080000  0.35170000  1
  H  H37  1  0.13920000  0.86080000  0.14830000  1
  H  H38  1  0.04210000  0.37670000  0.44330000  1
  H  H39  1  0.04210000  0.37670000  0.05670000  1
  H  H40  1  0.04210000  0.66540000  0.44330000  1
  H  H41  1  0.04210000  0.66540000  0.05670000  1
  C  C42  1  0.97400000  0.40090000  0.96640000  1
  C  C43  1  0.97400000  0.40090000  0.53360000  1
  C  C44  1  0.97400000  0.57310000  0.96640000  1
  C  C45  1  0.97400000  0.57310000  0.53360000  1
  C  C46  1  0.94600000  0.47300000  0.93370000  1
  C  C47  1  0.94600000  0.47300000  0.56630000  1
  C  C48  1  0.88580000  0.44290000  0.86220000  1
  C  C49  1  0.88580000  0.44290000  0.63780000  1
  C  C50  1  0.87360000  0.12640000  0.80380000  1
  C  C51  1  0.87360000  0.12640000  0.69620000  1
  C  C52  1  0.87360000  0.74720000  0.80380000  1
  C  C53  1  0.87360000  0.74720000  0.69620000  1
  C  C54  1  0.74720000  0.87360000  0.30380000  1
  C  C55  1  0.74720000  0.87360000  0.19620000  1
  C  C56  1  0.59910000  0.02600000  0.96640000  1
  C  C57  1  0.59910000  0.02600000  0.53360000  1
  C  C58  1  0.59910000  0.57310000  0.96640000  1
  C  C59  1  0.59910000  0.57310000  0.53360000  1
  C  C60  1  0.57310000  0.59910000  0.46640000  1
  C  C61  1  0.57310000  0.59910000  0.03360000  1
  C  C62  1  0.57310000  0.97400000  0.46640000  1
  C  C63  1  0.57310000  0.97400000  0.03360000  1
  C  C64  1  0.55710000  0.11420000  0.86220000  1
  C  C65  1  0.55710000  0.11420000  0.63780000  1
  C  C66  1  0.55710000  0.44290000  0.86220000  1
  C  C67  1  0.55710000  0.44290000  0.63780000  1
  C  C68  1  0.52700000  0.05400000  0.93370000  1
  C  C69  1  0.52700000  0.05400000  0.56630000  1
  C  C70  1  0.52700000  0.47300000  0.93370000  1
  C  C71  1  0.52700000  0.47300000  0.56630000  1
  C  C72  1  0.47300000  0.52700000  0.43370000  1
  C  C73  1  0.47300000  0.52700000  0.06630000  1
  C  C74  1  0.47300000  0.94600000  0.43370000  1
  C  C75  1  0.47300000  0.94600000  0.06630000  1
  C  C76  1  0.44290000  0.55710000  0.36220000  1
  C  C77  1  0.44290000  0.55710000  0.13780000  1
  C  C78  1  0.44290000  0.88580000  0.36220000  1
  C  C79  1  0.44290000  0.88580000  0.13780000  1
  C  C80  1  0.42690000  0.02600000  0.96640000  1
  C  C81  1  0.42690000  0.02600000  0.53360000  1
  C  C82  1  0.42690000  0.40090000  0.96640000  1
  C  C83  1  0.42690000  0.40090000  0.53360000  1
  C  C84  1  0.40090000  0.42690000  0.46640000  1
  C  C85  1  0.40090000  0.42690000  0.03360000  1
  C  C86  1  0.40090000  0.97400000  0.46640000  1
  C  C87  1  0.40090000  0.97400000  0.03360000  1
  C  C88  1  0.25280000  0.12640000  0.80380000  1
  C  C89  1  0.25280000  0.12640000  0.69620000  1
  C  C90  1  0.12640000  0.25280000  0.30380000  1
  C  C91  1  0.12640000  0.25280000  0.19620000  1
  C  C92  1  0.12640000  0.87360000  0.30380000  1
  C  C93  1  0.12640000  0.87360000  0.19620000  1
  C  C94  1  0.11420000  0.55710000  0.36220000  1
  C  C95  1  0.11420000  0.55710000  0.13780000  1
  C  C96  1  0.05400000  0.52700000  0.43370000  1
  C  C97  1  0.05400000  0.52700000  0.06630000  1
  C  C98  1  0.02600000  0.42690000  0.46640000  1
  C  C99  1  0.02600000  0.42690000  0.03360000  1
  C  C100  1  0.02600000  0.59910000  0.46640000  1
  C  C101  1  0.02600000  0.59910000  0.03360000  1
  N  N102  1  0.92730000  0.07270000  0.78760000  1
  N  N103  1  0.92730000  0.07270000  0.71240000  1
  N  N104  1  0.92730000  0.85460000  0.78760000  1
  N  N105  1  0.92730000  0.85460000  0.71240000  1
  N  N106  1  0.85460000  0.92730000  0.28760000  1
  N  N107  1  0.85460000  0.92730000  0.21240000  1
  N  N108  1  0.84080000  0.15920000  0.75000000  1
  N  N109  1  0.84080000  0.68160000  0.75000000  1
  N  N110  1  0.68160000  0.84080000  0.25000000  1
  N  N111  1  0.31840000  0.15920000  0.75000000  1
  N  N112  1  0.15920000  0.31840000  0.25000000  1
  N  N113  1  0.15920000  0.84080000  0.25000000  1
  N  N114  1  0.14540000  0.07270000  0.78760000  1
  N  N115  1  0.14540000  0.07270000  0.71240000  1
  N  N116  1  0.07270000  0.14540000  0.28760000  1
  N  N117  1  0.07270000  0.14540000  0.21240000  1
  N  N118  1  0.07270000  0.92730000  0.28760000  1
  N  N119  1  0.07270000  0.92730000  0.21240000  1
  O  O120  1  0.86350000  0.35100000  0.83550000  1
  O  O121  1  0.86350000  0.35100000  0.66450000  1
  O  O122  1  0.86350000  0.51250000  0.83550000  1
  O  O123  1  0.86350000  0.51250000  0.66450000  1
  O  O124  1  0.66666667  0.33333333  0.75000000  1
  O  O125  1  0.64900000  0.13650000  0.83550000  1
  O  O126  1  0.64900000  0.13650000  0.66450000  1
  O  O127  1  0.64900000  0.51250000  0.83550000  1
  O  O128  1  0.64900000  0.51250000  0.66450000  1
  O  O129  1  0.51250000  0.64900000  0.33550000  1
  O  O130  1  0.51250000  0.64900000  0.16450000  1
  O  O131  1  0.51250000  0.86350000  0.33550000  1
  O  O132  1  0.51250000  0.86350000  0.16450000  1
  O  O133  1  0.48750000  0.13650000  0.83550000  1
  O  O134  1  0.48750000  0.13650000  0.66450000  1
  O  O135  1  0.48750000  0.35100000  0.83550000  1
  O  O136  1  0.48750000  0.35100000  0.66450000  1
  O  O137  1  0.35100000  0.48750000  0.33550000  1
  O  O138  1  0.35100000  0.48750000  0.16450000  1
  O  O139  1  0.35100000  0.86350000  0.33550000  1
  O  O140  1  0.35100000  0.86350000  0.16450000  1
  O  O141  1  0.33333333  0.66666667  0.25000000  1
  O  O142  1  0.13650000  0.48750000  0.33550000  1
  O  O143  1  0.13650000  0.48750000  0.16450000  1
  O  O144  1  0.13650000  0.64900000  0.33550000  1
  O  O145  1  0.13650000  0.64900000  0.16450000  1
