# generated using pymatgen
data_CdH8C15O4
_symmetry_space_group_name_H-M   'P 1'
_cell_length_a   11.49170000
_cell_length_b   18.52400000
_cell_length_c   25.72700000
_cell_angle_alpha   90.00000000
_cell_angle_beta   96.28000000
_cell_angle_gamma   90.00000000
_symmetry_Int_Tables_number   1
_chemical_formula_structural   CdH8C15O4
_chemical_formula_sum   'Cd8 H64 C120 O32'
_cell_volume   5443.70062541
_cell_formula_units_Z   8
loop_
 _symmetry_equiv_pos_site_id
 _symmetry_equiv_pos_as_xyz
  1  'x, y, z'
loop_
 _atom_site_type_symbol
 _atom_site_label
 _atom_site_symmetry_multiplicity
 _atom_site_fract_x
 _atom_site_fract_y
 _atom_site_fract_z
 _atom_site_occupancy
  Cd  Cd0  1  0.02417000  0.74958000  0.44172000  1
  Cd  Cd1  1  0.02417000  0.75042000  0.94172000  1
  Cd  Cd2  1  0.03830000  0.06267000  0.55366000  1
  Cd  Cd3  1  0.03830000  0.43733000  0.05366000  1
  Cd  Cd4  1  0.96170000  0.56267000  0.94634000  1
  Cd  Cd5  1  0.96170000  0.93733000  0.44634000  1
  Cd  Cd6  1  0.97583000  0.24958000  0.05828000  1
  Cd  Cd7  1  0.97583000  0.25042000  0.55828000  1
  H  H8  1  0.11070000  0.24910000  0.18790000  1
  H  H9  1  0.11070000  0.25090000  0.68790000  1
  H  H10  1  0.16840000  0.72900000  0.78720000  1
  H  H11  1  0.16840000  0.77100000  0.28720000  1
  H  H12  1  0.19170000  0.20000000  0.93260000  1
  H  H13  1  0.19170000  0.30000000  0.43260000  1
  H  H14  1  0.21590000  0.54880000  0.10850000  1
  H  H15  1  0.21590000  0.95120000  0.60850000  1
  H  H16  1  0.21850000  0.19550000  0.25910000  1
  H  H17  1  0.21850000  0.30450000  0.75910000  1
  H  H18  1  0.26310000  0.72880000  0.71190000  1
  H  H19  1  0.26310000  0.77120000  0.21190000  1
  H  H20  1  0.28180000  0.72740000  0.02570000  1
  H  H21  1  0.28180000  0.77260000  0.52570000  1
  H  H22  1  0.29060000  0.09050000  0.43460000  1
  H  H23  1  0.29060000  0.40950000  0.93460000  1
  H  H24  1  0.29830000  0.17900000  0.86210000  1
  H  H25  1  0.29830000  0.32100000  0.36210000  1
  H  H26  1  0.33880000  0.59220000  0.17940000  1
  H  H27  1  0.33880000  0.90780000  0.67940000  1
  H  H28  1  0.34880000  0.09180000  0.69080000  1
  H  H29  1  0.34880000  0.40820000  0.19080000  1
  H  H30  1  0.40070000  0.11230000  0.36550000  1
  H  H31  1  0.40070000  0.38770000  0.86550000  1
  H  H32  1  0.41140000  0.73170000  0.59600000  1
  H  H33  1  0.41140000  0.76830000  0.09600000  1
  H  H34  1  0.42980000  0.65250000  0.36050000  1
  H  H35  1  0.42980000  0.84750000  0.86050000  1
  H  H36  1  0.46040000  0.14780000  0.75950000  1
  H  H37  1  0.46040000  0.35220000  0.25950000  1
  H  H38  1  0.47260000  0.15410000  0.21440000  1
  H  H39  1  0.47260000  0.34590000  0.71440000  1
  H  H40  1  0.52740000  0.65410000  0.28560000  1
  H  H41  1  0.52740000  0.84590000  0.78560000  1
  H  H42  1  0.53960000  0.64780000  0.74050000  1
  H  H43  1  0.53960000  0.85220000  0.24050000  1
  H  H44  1  0.57020000  0.15250000  0.13950000  1
  H  H45  1  0.57020000  0.34750000  0.63950000  1
  H  H46  1  0.58860000  0.23170000  0.90400000  1
  H  H47  1  0.58860000  0.26830000  0.40400000  1
  H  H48  1  0.59930000  0.61230000  0.13450000  1
  H  H49  1  0.59930000  0.88770000  0.63450000  1
  H  H50  1  0.65120000  0.59180000  0.80920000  1
  H  H51  1  0.65120000  0.90820000  0.30920000  1
  H  H52  1  0.66120000  0.09220000  0.32060000  1
  H  H53  1  0.66120000  0.40780000  0.82060000  1
  H  H54  1  0.70170000  0.67900000  0.63790000  1
  H  H55  1  0.70170000  0.82100000  0.13790000  1
  H  H56  1  0.70940000  0.59050000  0.06540000  1
  H  H57  1  0.70940000  0.90950000  0.56540000  1
  H  H58  1  0.71820000  0.22740000  0.47430000  1
  H  H59  1  0.71820000  0.27260000  0.97430000  1
  H  H60  1  0.73690000  0.22880000  0.78810000  1
  H  H61  1  0.73690000  0.27120000  0.28810000  1
  H  H62  1  0.78150000  0.69550000  0.24090000  1
  H  H63  1  0.78150000  0.80450000  0.74090000  1
  H  H64  1  0.78410000  0.04880000  0.39150000  1
  H  H65  1  0.78410000  0.45120000  0.89150000  1
  H  H66  1  0.80830000  0.70000000  0.56740000  1
  H  H67  1  0.80830000  0.80000000  0.06740000  1
  H  H68  1  0.83160000  0.22900000  0.71280000  1
  H  H69  1  0.83160000  0.27100000  0.21280000  1
  H  H70  1  0.88930000  0.74910000  0.31210000  1
  H  H71  1  0.88930000  0.75090000  0.81210000  1
  C  C72  1  0.15070000  0.60780000  0.01634000  1
  C  C73  1  0.15070000  0.89220000  0.51634000  1
  C  C74  1  0.15170000  0.13030000  0.63677000  1
  C  C75  1  0.15170000  0.36970000  0.13677000  1
  C  C76  1  0.15270000  0.17840000  0.48242000  1
  C  C77  1  0.15270000  0.32160000  0.98242000  1
  C  C78  1  0.18180000  0.22930000  0.70266000  1
  C  C79  1  0.18180000  0.27070000  0.20266000  1
  C  C80  1  0.21920000  0.16610000  0.68228000  1
  C  C81  1  0.21920000  0.33390000  0.18228000  1
  C  C82  1  0.22530000  0.70870000  0.37960000  1
  C  C83  1  0.22530000  0.79130000  0.87960000  1
  C  C84  1  0.22850000  0.19350000  0.43974000  1
  C  C85  1  0.22850000  0.30650000  0.93974000  1
  C  C86  1  0.23290000  0.23860000  0.91859000  1
  C  C87  1  0.23290000  0.26140000  0.41859000  1
  C  C88  1  0.23580000  0.63400000  0.06020000  1
  C  C89  1  0.23580000  0.86600000  0.56020000  1
  C  C90  1  0.24090000  0.74650000  0.28698000  1
  C  C91  1  0.24090000  0.75350000  0.78698000  1
  C  C92  1  0.24700000  0.23820000  0.24440000  1
  C  C93  1  0.24700000  0.26180000  0.74440000  1
  C  C94  1  0.25410000  0.59390000  0.10597000  1
  C  C95  1  0.25410000  0.90610000  0.60597000  1
  C  C96  1  0.28860000  0.71050000  0.33126000  1
  C  C97  1  0.28860000  0.78950000  0.83126000  1
  C  C98  1  0.29210000  0.13750000  0.41984000  1
  C  C99  1  0.29210000  0.36250000  0.91984000  1
  C  C100  1  0.29410000  0.69950000  0.05682000  1
  C  C101  1  0.29410000  0.80050000  0.55682000  1
  C  C102  1  0.29730000  0.22600000  0.87692000  1
  C  C103  1  0.29730000  0.27400000  0.37692000  1
  C  C104  1  0.29810000  0.74710000  0.24227000  1
  C  C105  1  0.29810000  0.75290000  0.74227000  1
  C  C106  1  0.32270000  0.13610000  0.70410000  1
  C  C107  1  0.32270000  0.36390000  0.20410000  1
  C  C108  1  0.32820000  0.61970000  0.14800000  1
  C  C109  1  0.32820000  0.88030000  0.64800000  1
  C  C110  1  0.35320000  0.23320000  0.76528000  1
  C  C111  1  0.35320000  0.26680000  0.26528000  1
  C  C112  1  0.35730000  0.15050000  0.37875000  1
  C  C113  1  0.35730000  0.34950000  0.87875000  1
  C  C114  1  0.36040000  0.21870000  0.35652000  1
  C  C115  1  0.36040000  0.28130000  0.85652000  1
  C  C116  1  0.37040000  0.72420000  0.09886000  1
  C  C117  1  0.37040000  0.77580000  0.59886000  1
  C  C118  1  0.38700000  0.68450000  0.14526000  1
  C  C119  1  0.38700000  0.81550000  0.64526000  1
  C  C120  1  0.38900000  0.16930000  0.74500000  1
  C  C121  1  0.38900000  0.33070000  0.24500000  1
  C  C122  1  0.39540000  0.67690000  0.33010000  1
  C  C123  1  0.39540000  0.82310000  0.83010000  1
  C  C124  1  0.40510000  0.71320000  0.24092000  1
  C  C125  1  0.40510000  0.78680000  0.74092000  1
  C  C126  1  0.42450000  0.23130000  0.31008000  1
  C  C127  1  0.42450000  0.26870000  0.81008000  1
  C  C128  1  0.45410000  0.67780000  0.28546000  1
  C  C129  1  0.45410000  0.82220000  0.78546000  1
  C  C130  1  0.46340000  0.71130000  0.19187000  1
  C  C131  1  0.46340000  0.78870000  0.69187000  1
  C  C132  1  0.53660000  0.21130000  0.30813000  1
  C  C133  1  0.53660000  0.28870000  0.80813000  1
  C  C134  1  0.54590000  0.17780000  0.21454000  1
  C  C135  1  0.54590000  0.32220000  0.71454000  1
  C  C136  1  0.57550000  0.73130000  0.18992000  1
  C  C137  1  0.57550000  0.76870000  0.68992000  1
  C  C138  1  0.59490000  0.21320000  0.25908000  1
  C  C139  1  0.59490000  0.28680000  0.75908000  1
  C  C140  1  0.60460000  0.17690000  0.16990000  1
  C  C141  1  0.60460000  0.32310000  0.66990000  1
  C  C142  1  0.61100000  0.66930000  0.75500000  1
  C  C143  1  0.61100000  0.83070000  0.25500000  1
  C  C144  1  0.61300000  0.18450000  0.35474000  1
  C  C145  1  0.61300000  0.31550000  0.85474000  1
  C  C146  1  0.62960000  0.22420000  0.40114000  1
  C  C147  1  0.62960000  0.27580000  0.90114000  1
  C  C148  1  0.63960000  0.71870000  0.14348000  1
  C  C149  1  0.63960000  0.78130000  0.64348000  1
  C  C150  1  0.64270000  0.65050000  0.12125000  1
  C  C151  1  0.64270000  0.84950000  0.62125000  1
  C  C152  1  0.64680000  0.73320000  0.73472000  1
  C  C153  1  0.64680000  0.76680000  0.23472000  1
  C  C154  1  0.67180000  0.11970000  0.35200000  1
  C  C155  1  0.67180000  0.38030000  0.85200000  1
  C  C156  1  0.67730000  0.63610000  0.79590000  1
  C  C157  1  0.67730000  0.86390000  0.29590000  1
  C  C158  1  0.70190000  0.24710000  0.25773000  1
  C  C159  1  0.70190000  0.25290000  0.75773000  1
  C  C160  1  0.70270000  0.72600000  0.62308000  1
  C  C161  1  0.70270000  0.77400000  0.12308000  1
  C  C162  1  0.70590000  0.19950000  0.44318000  1
  C  C163  1  0.70590000  0.30050000  0.94318000  1
  C  C164  1  0.70790000  0.63750000  0.08016000  1
  C  C165  1  0.70790000  0.86250000  0.58016000  1
  C  C166  1  0.71140000  0.21050000  0.16874000  1
  C  C167  1  0.71140000  0.28950000  0.66874000  1
  C  C168  1  0.74590000  0.09390000  0.39403000  1
  C  C169  1  0.74590000  0.40610000  0.89403000  1
  C  C170  1  0.75300000  0.73820000  0.25560000  1
  C  C171  1  0.75300000  0.76180000  0.75560000  1
  C  C172  1  0.75910000  0.24650000  0.21302000  1
  C  C173  1  0.75910000  0.25350000  0.71302000  1
  C  C174  1  0.76420000  0.13400000  0.43980000  1
  C  C175  1  0.76420000  0.36600000  0.93980000  1
  C  C176  1  0.76710000  0.73860000  0.58141000  1
  C  C177  1  0.76710000  0.76140000  0.08141000  1
  C  C178  1  0.77150000  0.69350000  0.06026000  1
  C  C179  1  0.77150000  0.80650000  0.56026000  1
  C  C180  1  0.77470000  0.20870000  0.12040000  1
  C  C181  1  0.77470000  0.29130000  0.62040000  1
  C  C182  1  0.78080000  0.66610000  0.81772000  1
  C  C183  1  0.78080000  0.83390000  0.31772000  1
  C  C184  1  0.81820000  0.72930000  0.79734000  1
  C  C185  1  0.81820000  0.77070000  0.29734000  1
  C  C186  1  0.84730000  0.67840000  0.01758000  1
  C  C187  1  0.84730000  0.82160000  0.51758000  1
  C  C188  1  0.84830000  0.63030000  0.86323000  1
  C  C189  1  0.84830000  0.86970000  0.36323000  1
  C  C190  1  0.84930000  0.10780000  0.48366000  1
  C  C191  1  0.84930000  0.39220000  0.98366000  1
  O  O192  1  0.06110000  0.16018000  0.61440000  1
  O  O193  1  0.06110000  0.33982000  0.11440000  1
  O  O194  1  0.10470000  0.54629000  0.01959000  1
  O  O195  1  0.10470000  0.95371000  0.51959000  1
  O  O196  1  0.11400000  0.23050000  0.50529000  1
  O  O197  1  0.11400000  0.26950000  0.00529000  1
  O  O198  1  0.12380000  0.64754000  0.97681000  1
  O  O199  1  0.12380000  0.85246000  0.47681000  1
  O  O200  1  0.12650000  0.73270000  0.37582000  1
  O  O201  1  0.12650000  0.76730000  0.87582000  1
  O  O202  1  0.13340000  0.11228000  0.49120000  1
  O  O203  1  0.13340000  0.38772000  0.99120000  1
  O  O204  1  0.18590000  0.07078000  0.62143000  1
  O  O205  1  0.18590000  0.42922000  0.12143000  1
  O  O206  1  0.27580000  0.68690000  0.42050000  1
  O  O207  1  0.27580000  0.81310000  0.92050000  1
  O  O208  1  0.72420000  0.18690000  0.07950000  1
  O  O209  1  0.72420000  0.31310000  0.57950000  1
  O  O210  1  0.81410000  0.57078000  0.87857000  1
  O  O211  1  0.81410000  0.92922000  0.37857000  1
  O  O212  1  0.86660000  0.61228000  0.00880000  1
  O  O213  1  0.86660000  0.88772000  0.50880000  1
  O  O214  1  0.87350000  0.23270000  0.12418000  1
  O  O215  1  0.87350000  0.26730000  0.62418000  1
  O  O216  1  0.87620000  0.14754000  0.52319000  1
  O  O217  1  0.87620000  0.35246000  0.02319000  1
  O  O218  1  0.88600000  0.73050000  0.99471000  1
  O  O219  1  0.88600000  0.76950000  0.49471000  1
  O  O220  1  0.89530000  0.04629000  0.48041000  1
  O  O221  1  0.89530000  0.45371000  0.98041000  1
  O  O222  1  0.93890000  0.66018000  0.88560000  1
  O  O223  1  0.93890000  0.83982000  0.38560000  1
