# generated using pymatgen
data_CuH95(C25N)4
_symmetry_space_group_name_H-M   'P 1'
_cell_length_a   21.50920271
_cell_length_b   21.50920271
_cell_length_c   27.14664614
_cell_angle_alpha   113.30723824
_cell_angle_beta   113.30723824
_cell_angle_gamma   90.07308278
_symmetry_Int_Tables_number   1
_chemical_formula_structural   CuH95(C25N)4
_chemical_formula_sum   'Cu4 H380 C400 N16'
_cell_volume   10406.05221731
_cell_formula_units_Z   4
loop_
 _symmetry_equiv_pos_site_id
 _symmetry_equiv_pos_as_xyz
  1  'x, y, z'
loop_
 _atom_site_type_symbol
 _atom_site_label
 _atom_site_symmetry_multiplicity
 _atom_site_fract_x
 _atom_site_fract_y
 _atom_site_fract_z
 _atom_site_occupancy
  C  C0  1  0.15270000  0.15290000  0.73480000  1
  C  C1  1  0.42890000  0.43570000  0.32660000  1
  C  C2  1  0.44910000  0.46350000  0.43920000  1
  C  C3  1  0.26320000  0.27780000  0.67920000  1
  C  C4  1  0.04800000  0.06320000  0.44200000  1
  C  C5  1  0.27820000  0.29500000  0.63700000  1
  C  C6  1  0.30090000  0.32330000  0.55340000  1
  C  C7  1  0.69710000  0.72110000  0.54520000  1
  C  C8  1  0.90240000  0.93060000  0.32900000  1
  C  C9  1  0.21880000  0.24900000  0.37600000  1
  C  C10  1  0.87920000  0.91280000  0.42140000  1
  C  C11  1  0.26760000  0.30600000  0.40380000  1
  C  C12  1  0.67500000  0.71460000  0.08520000  1
  C  C13  1  0.87740000  0.92220000  0.58000000  1
  C  C14  1  0.47570000  0.52890000  0.60380000  1
  C  C15  1  0.82120000  0.87800000  0.64500000  1
  C  C16  1  0.53000000  0.58740000  0.64840000  1
  C  C17  1  0.70360000  0.76140000  0.42940000  1
  C  C18  1  0.64760000  0.70840000  0.38760000  1
  C  C19  1  0.03890000  0.10030000  0.64720000  1
  C  C20  1  0.99810000  0.05990000  0.59100000  1
  C  C21  1  0.57900000  0.64540000  0.08380000  1
  C  C22  1  0.83970000  0.90910000  0.28220000  1
  C  C23  1  0.92980000  0.00200000  0.35780000  1
  C  C24  1  0.48630000  0.56550000  0.08000000  1
  C  C25  1  0.41740000  0.50120000  0.36280000  1
  C  C26  1  0.43270000  0.51690000  0.42060000  1
  C  C27  1  0.75540000  0.84400000  0.62340000  1
  C  C28  1  0.68210000  0.77110000  0.67800000  1
  C  C29  1  0.54790000  0.63790000  0.44060000  1
  C  C30  1  0.61770000  0.71070000  0.09880000  1
  C  C31  1  0.18620000  0.28040000  0.90180000  1
  C  C32  1  0.24690000  0.34390000  0.61960000  1
  C  C33  1  0.25820000  0.35820000  0.57780000  1
  C  C34  1  0.84390000  0.94410000  0.69020000  1
  C  C35  1  0.09030000  0.19810000  0.31700000  1
  C  C36  1  0.11350000  0.22250000  0.54760000  1
  C  C37  1  0.14650000  0.25830000  0.35660000  1
  C  C38  1  0.52620000  0.63940000  0.10000000  1
  C  C39  1  0.09470000  0.21130000  0.91100000  1
  C  C40  1  0.25140000  0.37220000  0.42160000  1
  C  C41  1  0.51490000  0.64630000  0.67620000  1
  C  C42  1  0.01410000  0.14890000  0.92480000  1
  C  C43  1  0.11120000  0.24700000  0.88360000  1
  C  C44  1  0.40430000  0.54150000  0.58560000  1
  C  C45  1  0.56690000  0.70730000  0.73100000  1
  C  C46  1  0.69640000  0.83840000  0.45780000  1
  C  C47  1  0.91880000  0.06720000  0.56340000  1
  C  C48  1  0.80090000  0.95570000  0.26480000  1
  C  C49  1  0.02660000  0.18240000  0.89100000  1
  C  C50  1  0.39200000  0.54880000  0.33640000  1
  C  C51  1  0.89190000  0.04930000  0.33940000  1
  C  C52  1  0.42080000  0.58140000  0.46240000  1
  C  C53  1  0.01180000  0.17520000  0.06640000  1
  C  C54  1  0.62320000  0.79160000  0.63560000  1
  C  C55  1  0.69310000  0.86250000  0.19200000  1
  C  C56  1  0.70590000  0.87590000  0.64220000  1
  C  C57  1  0.58920000  0.75960000  0.94420000  1
  C  C58  1  0.16930000  0.34030000  0.06840000  1
  C  C59  1  0.59140000  0.76660000  0.12640000  1
  C  C60  1  0.43190000  0.61110000  0.35300000  1
  C  C61  1  0.19960000  0.37980000  0.64540000  1
  C  C62  1  0.79700000  0.97740000  0.71180000  1
  C  C63  1  0.50760000  0.69380000  0.12780000  1
  C  C64  1  0.22620000  0.41460000  0.55860000  1
  C  C65  1  0.13310000  0.32270000  0.37260000  1
  C  C66  1  0.91910000  0.10890000  0.26780000  1
  C  C67  1  0.07230000  0.26270000  0.06440000  1
  C  C68  1  0.05960000  0.25380000  0.83620000  1
  C  C69  1  0.82950000  0.02430000  0.29400000  1
  C  C70  1  0.07320000  0.26820000  0.67960000  1
  C  C71  1  0.18380000  0.38020000  0.40500000  1
  C  C72  1  0.87110000  0.06790000  0.08820000  1
  C  C73  1  0.73030000  0.92850000  0.21400000  1
  C  C74  1  0.92350000  0.12510000  0.36900000  1
  C  C75  1  0.55530000  0.76150000  0.61700000  1
  C  C76  1  0.51820000  0.72500000  0.91780000  1
  C  C77  1  0.32360000  0.53060000  0.29180000  1
  C  C78  1  0.62770000  0.83690000  0.14620000  1
  C  C79  1  0.63200000  0.84140000  0.61920000  1
  C  C80  1  0.47480000  0.68520000  0.26300000  1
  C  C81  1  0.87790000  0.08910000  0.77720000  1
  C  C82  1  0.73010000  0.94250000  0.68640000  1
  C  C83  1  0.39190000  0.60450000  0.60840000  1
  C  C84  1  0.13300000  0.34600000  0.62320000  1
  C  C85  1  0.03380000  0.24700000  0.08300000  1
  C  C86  1  0.97490000  0.18910000  0.84360000  1
  C  C87  1  0.11310000  0.32890000  0.08760000  1
  C  C88  1  0.44480000  0.66160000  0.65700000  1
  C  C89  1  0.54120000  0.75840000  0.14220000  1
  C  C90  1  0.48970000  0.70870000  0.94720000  1
  C  C91  1  0.93310000  0.15390000  0.33180000  1
  C  C92  1  0.22180000  0.44660000  0.68860000  1
  C  C93  1  0.70610000  0.93150000  0.92280000  1
  C  C94  1  0.91710000  0.14270000  0.46400000  1
  C  C95  1  0.82150000  0.04810000  0.76000000  1
  C  C96  1  0.47450000  0.70470000  0.85620000  1
  C  C97  1  0.99140000  0.22480000  0.81620000  1
  C  C98  1  0.93140000  0.16880000  0.42360000  1
  C  C99  1  0.40430000  0.65190000  0.32240000  1
  C  C100  1  0.90190000  0.15430000  0.82240000  1
  C  C101  1  0.41880000  0.68140000  0.92360000  1
  C  C102  1  0.47480000  0.74140000  0.31620000  1
  C  C103  1  0.95470000  0.22450000  0.35620000  1
  C  C104  1  0.29810000  0.57150000  0.26000000  1
  C  C105  1  0.39270000  0.66710000  0.96400000  1
  C  C106  1  0.18150000  0.45610000  0.42280000  1
  C  C107  1  0.69660000  0.97180000  0.18860000  1
  C  C108  1  0.40390000  0.68310000  0.83180000  1
  C  C109  1  0.95870000  0.23970000  0.44720000  1
  C  C110  1  0.00840000  0.29120000  0.64220000  1
  C  C111  1  0.91160000  0.19480000  0.15700000  1
  C  C112  1  0.57890000  0.86310000  0.58760000  1
  C  C113  1  0.43910000  0.72490000  0.34360000  1
  C  C114  1  0.49700000  0.78380000  0.58300000  1
  C  C115  1  0.59600000  0.88300000  0.12320000  1
  C  C116  1  0.85450000  0.14190000  0.10840000  1
  C  C117  1  0.19250000  0.48010000  0.18640000  1
  C  C118  1  0.33910000  0.62790000  0.27720000  1
  C  C119  1  0.93520000  0.22480000  0.76300000  1
  C  C120  1  0.09140000  0.38200000  0.11920000  1
  C  C121  1  0.08690000  0.37770000  0.64620000  1
  C  C122  1  0.78060000  0.07360000  0.79180000  1
  C  C123  1  0.97500000  0.26820000  0.41780000  1
  C  C124  1  0.01150000  0.30530000  0.11700000  1
  C  C125  1  0.37510000  0.67350000  0.86900000  1
  C  C126  1  0.17850000  0.48030000  0.71400000  1
  C  C127  1  0.31790000  0.62110000  0.58820000  1
  C  C128  1  0.63020000  0.93380000  0.90500000  1
  C  C129  1  0.51820000  0.82320000  0.17960000  1
  C  C130  1  0.27430000  0.57950000  0.79400000  1
  C  C131  1  0.50380000  0.80960000  0.33620000  1
  C  C132  1  0.51270000  0.82230000  0.56440000  1
  C  C133  1  0.35890000  0.66910000  0.76780000  1
  C  C134  1  0.57270000  0.88310000  0.87260000  1
  C  C135  1  0.66460000  0.97620000  0.05860000  1
  C  C136  1  0.94380000  0.25760000  0.62780000  1
  C  C137  1  0.22740000  0.54700000  0.21180000  1
  C  C138  1  0.62980000  0.94960000  0.14540000  1
  C  C139  1  0.86110000  0.18190000  0.85300000  1
  C  C140  1  0.01660000  0.34140000  0.62640000  1
  C  C141  1  0.59030000  0.91930000  0.56840000  1
  C  C142  1  0.00960000  0.33920000  0.44420000  1
  C  C143  1  0.12590000  0.45590000  0.14220000  1
  C  C144  1  0.11250000  0.44310000  0.69200000  1
  C  C145  1  0.04160000  0.37320000  0.13560000  1
  C  C146  1  0.42520000  0.76180000  0.56640000  1
  C  C147  1  0.83140000  0.17080000  0.96240000  1
  C  C148  1  0.29930000  0.64190000  0.83940000  1
  C  C149  1  0.79880000  0.14200000  0.83640000  1
  C  C150  1  0.43240000  0.77660000  0.39100000  1
  C  C151  1  0.20570000  0.55090000  0.76480000  1
  C  C152  1  0.31720000  0.66880000  0.06340000  1
  C  C153  1  0.08840000  0.44640000  0.95780000  1
  C  C154  1  0.95730000  0.31690000  0.23100000  1
  C  C155  1  0.79150000  0.15430000  0.08560000  1
  C  C156  1  0.49700000  0.86120000  0.38360000  1
  C  C157  1  0.39890000  0.76410000  0.42480000  1
  C  C158  1  0.89630000  0.26490000  0.17620000  1
  C  C159  1  0.62220000  0.00140000  0.92160000  1
  C  C160  1  0.46130000  0.84470000  0.41100000  1
  C  C161  1  0.88940000  0.27620000  0.60000000  1
  C  C162  1  0.50830000  0.89650000  0.85660000  1
  C  C163  1  0.47250000  0.86350000  0.04760000  1
  C  C164  1  0.44810000  0.84030000  0.81700000  1
  C  C165  1  0.19410000  0.59390000  0.19020000  1
  C  C166  1  0.60820000  0.00820000  0.07780000  1
  C  C167  1  0.59390000  0.99690000  0.11960000  1
  C  C168  1  0.53040000  0.93620000  0.40180000  1
  C  C169  1  0.96070000  0.36770000  0.59880000  1
  C  C170  1  0.88790000  0.29790000  0.94060000  1
  C  C171  1  0.02110000  0.43210000  0.17800000  1
  C  C172  1  0.09400000  0.50540000  0.12340000  1
  C  C173  1  0.76690000  0.18270000  0.92060000  1
  C  C174  1  0.75120000  0.16740000  0.86280000  1
  C  C175  1  0.81550000  0.23630000  0.58000000  1
  C  C176  1  0.25200000  0.67980000  0.85780000  1
  C  C177  1  0.15910000  0.58970000  0.78220000  1
  C  C178  1  0.89540000  0.32900000  0.58380000  1
  C  C179  1  0.30990000  0.74810000  0.09100000  1
  C  C180  1  0.35030000  0.78890000  0.14720000  1
  C  C181  1  0.95840000  0.39760000  0.88760000  1
  C  C182  1  0.01140000  0.45360000  0.92940000  1
  C  C183  1  0.83740000  0.28000000  0.14840000  1
  C  C184  1  0.12800000  0.57120000  0.14500000  1
  C  C185  1  0.77890000  0.22570000  0.10380000  1
  C  C186  1  0.17220000  0.62740000  0.08000000  1
  C  C187  1  0.96460000  0.42500000  0.58520000  1
  C  C188  1  0.55600000  0.01760000  0.90380000  1
  C  C189  1  0.16280000  0.62920000  0.92140000  1
  C  C190  1  0.49900000  0.96880000  0.87600000  1
  C  C191  1  0.18060000  0.65240000  0.82900000  1
  C  C192  1  0.97110000  0.44710000  0.04520000  1
  C  C193  1  0.57330000  0.05090000  0.05340000  1
  C  C194  1  0.54500000  0.02820000  0.13700000  1
  C  C195  1  0.31320000  0.79800000  0.94200000  1
  C  C196  1  0.52780000  0.01320000  0.17920000  1
  C  C197  1  0.71350000  0.19910000  0.93920000  1
  C  C198  1  0.68570000  0.17890000  0.82660000  1
  C  C199  1  0.40290000  0.90270000  0.23480000  1
  C  C200  1  0.66790000  0.16810000  0.76520000  1
  C  C201  1  0.35230000  0.85910000  0.17340000  1
  C  C202  1  0.25990000  0.77430000  0.06080000  1
  C  C203  1  0.83400000  0.34860000  0.82080000  1
  C  C204  1  0.85600000  0.37120000  0.05800000  1
  C  C205  1  0.89120000  0.40800000  0.86300000  1
  C  C206  1  0.99750000  0.51990000  0.94660000  1
  C  C207  1  0.40190000  0.92590000  0.95480000  1
  C  C208  1  0.82340000  0.35160000  0.17100000  1
  C  C209  1  0.09280000  0.62300000  0.12400000  1
  C  C210  1  0.70780000  0.24140000  0.07860000  1
  C  C211  1  0.11380000  0.65220000  0.09620000  1
  C  C212  1  0.83980000  0.37940000  0.41480000  1
  C  C213  1  0.54740000  0.09220000  0.92000000  1
  C  C214  1  0.12190000  0.67510000  0.89620000  1
  C  C215  1  0.42620000  0.98300000  0.85500000  1
  C  C216  1  0.13160000  0.68900000  0.85160000  1
  C  C217  1  0.52420000  0.08200000  0.07060000  1
  C  C218  1  0.51000000  0.07080000  0.11240000  1
  C  C219  1  0.64170000  0.20310000  0.85280000  1
  C  C220  1  0.65710000  0.21890000  0.90900000  1
  C  C221  1  0.74520000  0.31160000  0.41620000  1
  C  C222  1  0.80750000  0.37690000  0.21780000  1
  C  C223  1  0.82200000  0.39420000  0.14220000  1
  C  C224  1  0.65630000  0.23550000  0.42000000  1
  C  C225  1  0.30460000  0.88840000  0.13720000  1
  C  C226  1  0.26210000  0.84630000  0.07940000  1
  C  C227  1  0.38200000  0.97060000  0.87660000  1
  C  C228  1  0.25410000  0.84310000  0.82200000  1
  C  C229  1  0.35730000  0.94730000  0.05940000  1
  C  C230  1  0.76890000  0.36190000  0.40120000  1
  C  C231  1  0.53440000  0.12860000  0.59820000  1
  C  C232  1  0.87730000  0.47430000  0.88040000  1
  C  C233  1  0.93040000  0.53040000  0.92220000  1
  C  C234  1  0.40370000  0.00390000  0.80980000  1
  C  C235  1  0.02330000  0.63110000  0.18300000  1
  C  C236  1  0.81590000  0.42490000  0.95240000  1
  C  C237  1  0.03990000  0.65170000  0.14340000  1
  C  C238  1  0.67620000  0.28940000  0.40000000  1
  C  C239  1  0.43370000  0.05030000  0.58900000  1
  C  C240  1  0.07980000  0.70060000  0.07840000  1
  C  C241  1  0.08870000  0.72010000  0.82380000  1
  C  C242  1  0.33930000  0.97410000  0.57520000  1
  C  C243  1  0.47760000  0.11340000  0.61640000  1
  C  C244  1  0.06870000  0.70590000  0.91440000  1
  C  C245  1  0.08590000  0.72630000  0.76900000  1
  C  C246  1  0.48860000  0.13060000  0.04220000  1
  C  C247  1  0.60540000  0.25380000  0.93660000  1
  C  C248  1  0.78610000  0.44090000  0.23520000  1
  C  C249  1  0.38560000  0.04140000  0.60900000  1
  C  C250  1  0.30560000  0.96240000  0.16360000  1
  C  C251  1  0.80250000  0.45990000  0.16060000  1
  C  C252  1  0.20840000  0.86900000  0.03760000  1
  C  C253  1  0.19540000  0.85880000  0.43360000  1
  C  C254  1  0.23760000  0.90600000  0.86440000  1
  C  C255  1  0.75110000  0.42050000  0.30800000  1
  C  C256  1  0.31370000  0.98370000  0.85780000  1
  C  C257  1  0.89500000  0.56540000  0.55580000  1
  C  C258  1  0.35090000  0.02190000  0.43160000  1
  C  C259  1  0.71500000  0.39020000  0.37360000  1
  C  C260  1  0.32890000  0.00810000  0.14700000  1
  C  C261  1  0.80420000  0.48440000  0.85460000  1
  C  C262  1  0.33520000  0.01560000  0.78820000  1
  C  C263  1  0.62980000  0.31600000  0.37220000  1
  C  C264  1  0.91760000  0.60600000  0.94140000  1
  C  C265  1  0.01050000  0.70010000  0.12740000  1
  C  C266  1  0.90130000  0.59110000  0.23220000  1
  C  C267  1  0.25790000  0.94830000  0.43560000  1
  C  C268  1  0.47340000  0.16760000  0.66380000  1
  C  C269  1  0.78550000  0.48030000  0.20600000  1
  C  C270  1  0.64360000  0.33860000  0.82040000  1
  C  C271  1  0.02880000  0.72520000  0.09500000  1
  C  C272  1  0.03290000  0.72970000  0.41180000  1
  C  C273  1  0.76630000  0.46450000  0.28600000  1
  C  C274  1  0.80450000  0.50610000  0.13100000  1
  C  C275  1  0.18830000  0.89450000  0.88300000  1
  C  C276  1  0.85040000  0.55720000  0.58220000  1
  C  C277  1  0.28180000  0.98880000  0.20820000  1
  C  C278  1  0.73150000  0.44070000  0.35380000  1
  C  C279  1  0.26280000  0.97220000  0.88080000  1
  C  C280  1  0.46180000  0.17220000  0.23700000  1
  C  C281  1  0.35070000  0.06190000  0.72280000  1
  C  C282  1  0.29370000  0.00610000  0.81360000  1
  C  C283  1  0.03350000  0.74610000  0.89160000  1
  C  C284  1  0.75980000  0.47280000  0.87680000  1
  C  C285  1  0.20080000  0.91400000  0.41700000  1
  C  C286  1  0.38130000  0.09550000  0.65640000  1
  C  C287  1  0.27550000  0.99130000  0.41240000  1
  C  C288  1  0.03780000  0.75460000  0.84300000  1
  C  C289  1  0.64900000  0.36620000  0.35780000  1
  C  C290  1  0.79250000  0.51150000  0.55280000  1
  C  C291  1  0.85130000  0.57210000  0.16820000  1
  C  C292  1  0.78320000  0.50800000  0.81140000  1
  C  C293  1  0.03330000  0.75870000  0.57720000  1
  C  C294  1  0.70310000  0.42870000  0.03600000  1
  C  C295  1  0.31150000  0.03810000  0.74000000  1
  C  C296  1  0.86830000  0.59850000  0.64380000  1
  C  C297  1  0.42520000  0.15860000  0.68380000  1
  C  C298  1  0.75780000  0.49520000  0.07640000  1
  C  C299  1  0.33190000  0.07950000  0.17760000  1
  C  C300  1  0.32950000  0.08190000  0.67760000  1
  C  C301  1  0.74520000  0.50780000  0.57640000  1
  C  C302  1  0.40860000  0.17520000  0.18380000  1
  C  C303  1  0.84850000  0.61830000  0.14380000  1
  C  C304  1  0.28810000  0.06150000  0.24000000  1
  C  C305  1  0.67870000  0.45310000  0.53600000  1
  C  C306  1  0.00870000  0.78330000  0.07720000  1
  C  C307  1  0.75800000  0.53320000  0.31140000  1
  C  C308  1  0.82210000  0.60130000  0.66820000  1
  C  C309  1  0.76150000  0.54250000  0.05280000  1
  C  C310  1  0.61620000  0.39900000  0.85780000  1
  C  C311  1  0.00460000  0.78780000  0.34300000  1
  C  C312  1  0.24130000  0.02550000  0.91240000  1
  C  C313  1  0.34550000  0.13130000  0.15640000  1
  C  C314  1  0.16400000  0.95080000  0.91700000  1
  C  C315  1  0.72280000  0.50980000  0.37680000  1
  C  C316  1  0.99610000  0.78350000  0.39160000  1
  C  C317  1  0.25610000  0.04370000  0.31360000  1
  C  C318  1  0.31190000  0.10070000  0.22280000  1
  C  C319  1  0.42220000  0.21180000  0.73700000  1
  C  C320  1  0.22220000  0.01280000  0.38080000  1
  C  C321  1  0.69070000  0.48150000  0.85380000  1
  C  C322  1  0.23880000  0.03180000  0.70820000  1
  C  C323  1  0.80720000  0.60040000  0.08220000  1
  C  C324  1  0.14450000  0.93830000  0.38300000  1
  C  C325  1  0.75610000  0.55450000  0.63100000  1
  C  C326  1  0.71450000  0.51630000  0.78600000  1
  C  C327  1  0.97970000  0.78290000  0.91180000  1
  C  C328  1  0.97520000  0.77880000  0.59500000  1
  C  C329  1  0.58860000  0.39360000  0.32040000  1
  C  C330  1  0.73030000  0.53550000  0.70600000  1
  C  C331  1  0.41760000  0.22340000  0.16380000  1
  C  C332  1  0.19830000  0.00790000  0.93560000  1
  C  C333  1  0.84110000  0.65130000  0.73220000  1
  C  C334  1  0.95010000  0.76050000  0.62740000  1
  C  C335  1  0.85600000  0.66760000  0.44140000  1
  C  C336  1  0.56600000  0.37980000  0.87220000  1
  C  C337  1  0.26560000  0.08520000  0.28820000  1
  C  C338  1  0.73440000  0.55420000  0.35460000  1
  C  C339  1  0.25810000  0.07890000  0.64700000  1
  C  C340  1  0.64020000  0.46500000  0.87360000  1
  C  C341  1  0.27190000  0.10090000  0.93160000  1
  C  C342  1  0.81540000  0.64500000  0.05580000  1
  C  C343  1  0.23370000  0.06370000  0.35780000  1
  C  C344  1  0.67050000  0.50110000  0.80800000  1
  C  C345  1  0.15600000  0.98760000  0.36440000  1
  C  C346  1  0.10880000  0.94540000  0.93360000  1
  C  C347  1  0.11900000  0.95840000  0.53760000  1
  C  C348  1  0.70990000  0.55250000  0.66060000  1
  C  C349  1  0.21240000  0.05560000  0.66360000  1
  C  C350  1  0.29140000  0.13560000  0.10900000  1
  C  C351  1  0.69090000  0.53610000  0.73520000  1
  C  C352  1  0.50380000  0.35540000  0.43660000  1
  C  C353  1  0.38060000  0.23860000  0.54220000  1
  C  C354  1  0.97630000  0.83590000  0.26900000  1
  C  C355  1  0.95590000  0.81870000  0.41440000  1
  C  C356  1  0.36340000  0.22760000  0.11640000  1
  C  C357  1  0.22410000  0.08930000  0.07520000  1
  C  C358  1  0.97010000  0.83870000  0.32380000  1
  C  C359  1  0.95060000  0.82980000  0.57840000  1
  C  C360  1  0.30030000  0.18370000  0.08900000  1
  C  C361  1  0.53940000  0.42620000  0.90000000  1
  C  C362  1  0.90170000  0.78990000  0.64340000  1
  C  C363  1  0.67490000  0.56590000  0.45240000  1
  C  C364  1  0.88110000  0.77330000  0.68300000  1
  C  C365  1  0.25390000  0.15370000  0.30980000  1
  C  C366  1  0.78040000  0.68040000  0.42220000  1
  C  C367  1  0.72430000  0.62730000  0.38040000  1
  C  C368  1  0.37860000  0.28440000  0.09820000  1
  C  C369  1  0.61190000  0.51890000  0.90120000  1
  C  C370  1  0.19730000  0.10730000  0.55940000  1
  C  C371  1  0.09310000  0.00410000  0.32200000  1
  C  C372  1  0.22060000  0.13200000  0.37660000  1
  C  C373  1  0.09630000  0.01210000  0.57940000  1
  C  C374  1  0.13840000  0.05460000  0.63720000  1
  C  C375  1  0.48550000  0.40630000  0.92000000  1
  C  C376  1  0.64420000  0.57200000  0.64220000  1
  C  C377  1  0.62690000  0.55750000  0.71780000  1
  C  C378  1  0.56160000  0.49520000  0.91620000  1
  C  C379  1  0.46890000  0.40710000  0.40900000  1
  C  C380  1  0.45310000  0.39170000  0.35280000  1
  C  C381  1  0.32080000  0.26000000  0.61240000  1
  C  C382  1  0.33200000  0.27420000  0.57060000  1
  C  C383  1  0.93900000  0.88160000  0.35160000  1
  C  C384  1  0.23300000  0.17620000  0.35500000  1
  C  C385  1  0.92510000  0.87190000  0.39620000  1
  C  C386  1  0.34220000  0.29740000  0.42000000  1
  C  C387  1  0.62940000  0.58980000  0.91480000  1
  C  C388  1  0.90220000  0.86380000  0.59620000  1
  C  C389  1  0.49140000  0.45780000  0.57860000  1
  C  C390  1  0.87300000  0.84280000  0.62400000  1
  C  C391  1  0.60160000  0.57340000  0.67100000  1
  C  C392  1  0.17590000  0.15190000  0.45480000  1
  C  C393  1  0.76990000  0.74750000  0.44660000  1
  C  C394  1  0.65800000  0.64120000  0.36300000  1
  C  C395  1  0.62120000  0.60600000  0.55800000  1
  C  C396  1  0.59860000  0.58400000  0.32080000  1
  C  C397  1  0.02430000  0.00990000  0.56080000  1
  C  C398  1  0.10910000  0.10230000  0.67340000  1
  C  C399  1  0.41810000  0.41790000  0.26520000  1
  Cu  Cu400  1  0.13236000  0.13496000  0.50024000  1
  Cu  Cu401  1  0.38496000  0.88236000  0.00024000  1
  Cu  Cu402  1  0.88212000  0.38472000  0.99976000  1
  Cu  Cu403  1  0.63472000  0.63212000  0.49976000  1
  H  H404  1  0.13670000  0.14630000  0.76180000  1
  H  H405  1  0.56950000  0.58090000  0.34020000  1
  H  H406  1  0.59040000  0.60420000  0.06160000  1
  H  H407  1  0.60220000  0.61700000  0.93420000  1
  H  H408  1  0.57170000  0.59230000  0.28600000  1
  H  H409  1  0.44610000  0.46770000  0.47440000  1
  H  H410  1  0.50730000  0.53010000  0.05940000  1
  H  H411  1  0.87580000  0.89920000  0.45080000  1
  H  H412  1  0.30860000  0.33300000  0.52480000  1
  H  H413  1  0.71620000  0.74160000  0.12180000  1
  H  H414  1  0.90300000  0.93200000  0.56020000  1
  H  H415  1  0.82110000  0.86110000  0.26020000  1
  H  H416  1  0.71490000  0.75510000  0.66100000  1
  H  H417  1  0.10960000  0.15580000  0.31020000  1
  H  H418  1  0.14960000  0.19960000  0.73760000  1
  H  H419  1  0.40100000  0.45500000  0.25440000  1
  H  H420  1  0.21860000  0.27280000  0.93560000  1
  H  H421  1  0.19790000  0.25930000  0.86820000  1
  H  H422  1  0.89890000  0.96210000  0.44060000  1
  H  H423  1  0.83330000  0.90390000  0.38940000  1
  H  H424  1  0.66310000  0.73390000  0.68320000  1
  H  H425  1  0.48870000  0.56050000  0.11500000  1
  H  H426  1  0.66500000  0.73680000  0.05820000  1
  H  H427  1  0.23250000  0.30730000  0.69200000  1
  H  H428  1  0.13010000  0.20670000  0.94360000  1
  H  H429  1  0.89010000  0.96670000  0.70640000  1
  H  H430  1  0.88530000  0.96350000  0.61620000  1
  H  H431  1  0.82820000  0.90880000  0.55320000  1
  H  H432  1  0.05730000  0.14970000  0.95760000  1
  H  H433  1  0.05230000  0.15490000  0.08020000  1
  H  H434  1  0.58920000  0.69360000  0.76320000  1
  H  H435  1  0.70570000  0.81110000  0.71660000  1
  H  H436  1  0.01890000  0.12990000  0.67100000  1
  H  H437  1  0.62010000  0.73130000  0.95920000  1
  H  H438  1  0.99330000  0.10490000  0.89500000  1
  H  H439  1  0.60210000  0.71770000  0.37560000  1
  H  H440  1  0.17800000  0.29560000  0.04580000  1
  H  H441  1  0.60180000  0.72260000  0.72140000  1
  H  H442  1  0.43790000  0.56010000  0.05300000  1
  H  H443  1  0.28730000  0.41170000  0.44520000  1
  H  H444  1  0.74220000  0.86700000  0.48600000  1
  H  H445  1  0.06470000  0.20030000  0.27900000  1
  H  H446  1  0.36700000  0.50420000  0.55740000  1
  H  H447  1  0.89590000  0.03370000  0.52160000  1
  H  H448  1  0.05930000  0.19810000  0.33540000  1
  H  H449  1  0.18920000  0.33000000  0.91340000  1
  H  H450  1  0.43590000  0.58110000  0.50140000  1
  H  H451  1  0.51290000  0.66150000  0.27500000  1
  H  H452  1  0.92030000  0.07010000  0.11040000  1
  H  H453  1  0.10070000  0.25130000  0.65720000  1
  H  H454  1  0.07520000  0.22700000  0.03120000  1
  H  H455  1  0.96110000  0.11350000  0.26260000  1
  H  H456  1  0.21170000  0.36750000  0.10360000  1
  H  H457  1  0.90430000  0.06070000  0.25800000  1
  H  H458  1  0.89600000  0.05860000  0.58560000  1
  H  H459  1  0.94760000  0.11040000  0.47160000  1
  H  H460  1  0.98670000  0.15050000  0.02300000  1
  H  H461  1  0.90510000  0.07210000  0.75600000  1
  H  H462  1  0.59880000  0.76620000  0.91400000  1
  H  H463  1  0.05770000  0.23130000  0.68700000  1
  H  H464  1  0.44720000  0.62180000  0.46640000  1
  H  H465  1  0.66740000  0.84260000  0.47880000  1
  H  H466  1  0.54720000  0.72560000  0.62700000  1
  H  H467  1  0.67510000  0.85410000  0.42660000  1
  H  H468  1  0.72060000  0.90520000  0.94640000  1
  H  H469  1  0.98290000  0.17030000  0.94400000  1
  H  H470  1  0.26310000  0.45070000  0.56900000  1
  H  H471  1  0.85910000  0.04810000  0.04560000  1
  H  H472  1  0.98160000  0.17140000  0.08460000  1
  H  H473  1  0.84400000  0.03900000  0.09580000  1
  H  H474  1  0.71380000  0.90920000  0.88700000  1
  H  H475  1  0.19760000  0.39360000  0.51540000  1
  H  H476  1  0.29440000  0.49080000  0.28300000  1
  H  H477  1  0.51850000  0.71590000  0.98660000  1
  H  H478  1  0.91630000  0.11390000  0.56620000  1
  H  H479  1  0.54310000  0.74530000  0.74360000  1
  H  H480  1  0.26660000  0.47020000  0.70160000  1
  H  H481  1  0.10130000  0.30770000  0.71760000  1
  H  H482  1  0.07080000  0.27820000  0.81740000  1
  H  H483  1  0.59640000  0.80440000  0.97700000  1
  H  H484  1  0.15350000  0.36490000  0.04340000  1
  H  H485  1  0.49470000  0.70630000  0.83120000  1
  H  H486  1  0.37160000  0.58340000  0.44640000  1
  H  H487  1  0.47120000  0.69040000  0.13860000  1
  H  H488  1  0.43100000  0.65240000  0.24120000  1
  H  H489  1  0.48050000  0.70430000  0.23740000  1
  H  H490  1  0.95580000  0.18520000  0.17520000  1
  H  H491  1  0.21590000  0.44870000  0.20020000  1
  H  H492  1  0.19740000  0.43480000  0.57900000  1
  H  H493  1  0.88270000  0.12350000  0.24140000  1
  H  H494  1  0.08640000  0.32840000  0.36100000  1
  H  H495  1  0.43180000  0.67560000  0.00180000  1
  H  H496  1  0.73280000  0.97860000  0.94620000  1
  H  H497  1  0.30540000  0.55380000  0.78120000  1
  H  H498  1  0.36920000  0.61900000  0.94440000  1
  H  H499  1  0.86900000  0.11920000  0.44440000  1
  H  H500  1  0.80380000  0.05540000  0.28120000  1
  H  H501  1  0.22860000  0.48280000  0.44620000  1
  H  H502  1  0.92560000  0.18180000  0.50180000  1
  H  H503  1  0.57840000  0.83640000  0.86100000  1
  H  H504  1  0.37350000  0.63270000  0.74140000  1
  H  H505  1  0.68480000  0.94740000  0.07900000  1
  H  H506  1  0.69870000  0.96590000  0.70020000  1
  H  H507  1  0.43520000  0.70580000  0.67520000  1
  H  H508  1  0.95430000  0.23050000  0.73740000  1
  H  H509  1  0.90240000  0.18100000  0.74120000  1
  H  H510  1  0.94040000  0.22120000  0.63860000  1
  H  H511  1  0.83340000  0.12160000  0.94640000  1
  H  H512  1  0.95630000  0.24470000  0.33120000  1
  H  H513  1  0.61490000  0.90350000  0.54340000  1
  H  H514  1  0.05440000  0.34640000  0.47700000  1
  H  H515  1  0.52820000  0.82080000  0.31740000  1
  H  H516  1  0.55770000  0.85130000  0.21760000  1
  H  H517  1  0.72020000  0.01660000  0.20160000  1
  H  H518  1  0.99530000  0.29310000  0.24360000  1
  H  H519  1  0.36390000  0.66630000  0.06620000  1
  H  H520  1  0.96590000  0.26850000  0.48660000  1
  H  H521  1  0.74080000  0.04440000  0.78300000  1
  H  H522  1  0.64360000  0.94760000  0.01540000  1
  H  H523  1  0.15920000  0.46380000  0.38700000  1
  H  H524  1  0.28900000  0.59400000  0.59580000  1
  H  H525  1  0.42140000  0.73160000  0.58460000  1
  H  H526  1  0.29810000  0.60910000  0.54560000  1
  H  H527  1  0.70070000  0.01310000  0.06900000  1
  H  H528  1  0.42030000  0.73290000  0.44400000  1
  H  H529  1  0.15520000  0.47060000  0.44640000  1
  H  H530  1  0.10410000  0.42510000  0.92660000  1
  H  H531  1  0.97560000  0.29720000  0.12700000  1
  H  H532  1  0.09260000  0.41740000  0.97880000  1
  H  H533  1  0.87180000  0.19720000  0.96640000  1
  H  H534  1  0.48130000  0.80770000  0.18700000  1
  H  H535  1  0.01620000  0.34880000  0.41400000  1
  H  H536  1  0.32210000  0.65510000  0.25600000  1
  H  H537  1  0.40050000  0.73670000  0.52300000  1
  H  H538  1  0.36040000  0.69760000  0.97160000  1
  H  H539  1  0.30860000  0.64600000  0.08560000  1
  H  H540  1  0.31070000  0.65430000  0.75800000  1
  H  H541  1  0.61750000  0.96170000  0.60360000  1
  H  H542  1  0.36350000  0.71110000  0.76260000  1
  H  H543  1  0.47700000  0.82520000  0.53120000  1
  H  H544  1  0.50130000  0.85070000  0.15720000  1
  H  H545  1  0.32010000  0.67030000  0.61040000  1
  H  H546  1  0.91150000  0.26290000  0.77500000  1
  H  H547  1  0.83110000  0.18590000  0.00140000  1
  H  H548  1  0.58000000  0.93920000  0.41340000  1
  H  H549  1  0.44810000  0.80930000  0.83540000  1
  H  H550  1  0.28370000  0.64590000  0.02160000  1
  H  H551  1  0.75420000  0.11700000  0.05740000  1
  H  H552  1  0.45030000  0.81470000  0.77900000  1
  H  H553  1  0.11700000  0.49220000  0.98600000  1
  H  H554  1  0.66170000  0.03730000  0.94520000  1
  H  H555  1  0.81010000  0.18790000  0.55300000  1
  H  H556  1  0.97260000  0.35180000  0.22140000  1
  H  H557  1  0.54560000  0.92800000  0.54580000  1
  H  H558  1  0.96770000  0.35210000  0.87560000  1
  H  H559  1  0.35490000  0.74330000  0.39500000  1
  H  H560  1  0.98130000  0.37010000  0.45920000  1
  H  H561  1  0.37990000  0.76890000  0.17100000  1
  H  H562  1  0.06110000  0.45570000  0.21660000  1
  H  H563  1  0.94360000  0.33920000  0.26320000  1
  H  H564  1  0.40490000  0.80230000  0.58020000  1
  H  H565  1  0.39970000  0.80730000  0.45760000  1
  H  H566  1  0.15880000  0.57820000  0.05320000  1
  H  H567  1  0.21350000  0.63530000  0.11620000  1
  H  H568  1  0.45670000  0.88010000  0.44360000  1
  H  H569  1  0.21670000  0.64010000  0.20640000  1
  H  H570  1  0.55730000  0.98250000  0.19200000  1
  H  H571  1  0.81050000  0.23870000  0.61500000  1
  H  H572  1  0.98680000  0.41500000  0.55820000  1
  H  H573  1  0.98390000  0.41310000  0.18320000  1
  H  H574  1  0.15390000  0.58330000  0.88940000  1
  H  H575  1  0.21210000  0.64890000  0.94060000  1
  H  H576  1  0.50930000  0.94790000  0.36820000  1
  H  H577  1  0.52280000  0.96860000  0.43560000  1
  H  H578  1  0.70500000  0.15100000  0.75440000  1
  H  H579  1  0.44960000  0.89960000  0.23760000  1
  H  H580  1  0.40580000  0.85960000  0.81020000  1
  H  H581  1  0.00510000  0.46490000  0.16100000  1
  H  H582  1  0.11110000  0.57110000  0.76020000  1
  H  H583  1  0.18200000  0.65300000  0.06020000  1
  H  H584  1  0.99160000  0.46620000  0.62180000  1
  H  H585  1  0.58300000  0.05860000  0.02480000  1
  H  H586  1  0.14920000  0.62580000  0.95080000  1
  H  H587  1  0.78010000  0.25730000  0.55940000  1
  H  H588  1  0.71770000  0.19610000  0.97440000  1
  H  H589  1  0.84230000  0.32170000  0.78600000  1
  H  H590  1  0.86700000  0.35220000  0.43420000  1
  H  H591  1  0.85420000  0.34040000  0.56160000  1
  H  H592  1  0.83090000  0.31950000  0.84020000  1
  H  H593  1  0.39630000  0.88670000  0.26180000  1
  H  H594  1  0.62490000  0.13450000  0.73820000  1
  H  H595  1  0.47930000  0.99070000  0.15980000  1
  H  H596  1  0.77880000  0.29260000  0.43840000  1
  H  H597  1  0.91800000  0.43280000  0.56580000  1
  H  H598  1  0.53570000  0.05630000  0.21400000  1
  H  H599  1  0.22170000  0.74330000  0.02560000  1
  H  H600  1  0.69790000  0.22070000  0.44060000  1
  H  H601  1  0.67500000  0.19840000  0.04920000  1
  H  H602  1  0.03380000  0.55820000  0.97520000  1
  H  H603  1  0.84440000  0.36980000  0.37820000  1
  H  H604  1  0.59280000  0.12180000  0.93980000  1
  H  H605  1  0.81090000  0.35090000  0.23980000  1
  H  H606  1  0.30390000  0.84410000  0.83900000  1
  H  H607  1  0.04940000  0.59560000  0.18980000  1
  H  H608  1  0.66200000  0.21200000  0.76240000  1
  H  H609  1  0.39660000  0.95060000  0.24560000  1
  H  H610  1  0.53300000  0.08720000  0.56440000  1
  H  H611  1  0.57970000  0.14110000  0.63180000  1
  H  H612  1  0.70830000  0.27150000  0.05940000  1
  H  H613  1  0.69390000  0.26450000  0.11060000  1
  H  H614  1  0.22990000  0.80070000  0.81680000  1
  H  H615  1  0.85680000  0.42860000  0.44180000  1
  H  H616  1  0.62370000  0.19550000  0.38500000  1
  H  H617  1  0.79050000  0.36530000  0.80800000  1
  H  H618  1  0.43370000  0.01030000  0.79360000  1
  H  H619  1  0.43650000  0.01310000  0.55640000  1
  H  H620  1  0.51910000  0.09730000  0.88380000  1
  H  H621  1  0.52500000  0.10560000  0.94680000  1
  H  H622  1  0.34970000  0.94210000  0.54240000  1
  H  H623  1  0.22210000  0.82470000  0.41980000  1
  H  H624  1  0.07600000  0.68040000  0.73680000  1
  H  H625  1  0.23910000  0.84450000  0.78340000  1
  H  H626  1  0.59790000  0.20890000  0.82900000  1
  H  H627  1  0.91090000  0.52210000  0.54080000  1
  H  H628  1  0.34830000  0.95990000  0.60500000  1
  H  H629  1  0.47650000  0.09210000  0.12440000  1
  H  H630  1  0.38220000  0.99980000  0.45420000  1
  H  H631  1  0.13040000  0.75120000  0.77860000  1
  H  H632  1  0.63490000  0.25710000  0.44700000  1
  H  H633  1  0.09210000  0.71650000  0.05480000  1
  H  H634  1  0.50620000  0.13100000  0.01400000  1
  H  H635  1  0.03570000  0.67130000  0.22100000  1
  H  H636  1  0.05960000  0.69680000  0.94260000  1
  H  H637  1  0.62430000  0.26210000  0.97840000  1
  H  H638  1  0.97390000  0.61270000  0.16460000  1
  H  H639  1  0.52580000  0.16660000  0.58660000  1
  H  H640  1  0.18450000  0.82970000  0.99860000  1
  H  H641  1  0.48790000  0.13650000  0.22500000  1
  H  H642  1  0.05990000  0.70970000  0.38960000  1
  H  H643  1  0.69350000  0.34410000  0.84280000  1
  H  H644  1  0.29400000  0.94580000  0.46880000  1
  H  H645  1  0.94850000  0.60090000  0.23740000  1
  H  H646  1  0.35810000  0.01390000  0.39640000  1
  H  H647  1  0.89630000  0.55270000  0.24200000  1
  H  H648  1  0.56040000  0.22300000  0.91440000  1
  H  H649  1  0.72600000  0.38880000  0.02840000  1
  H  H650  1  0.21370000  0.87750000  0.47700000  1
  H  H651  1  0.39910000  0.06610000  0.74400000  1
  H  H652  1  0.93480000  0.60220000  0.58600000  1
  H  H653  1  0.62070000  0.29430000  0.81300000  1
  H  H654  1  0.23080000  0.90540000  0.03360000  1
  H  H655  1  0.43860000  0.11380000  0.02120000  1
  H  H656  1  0.17020000  0.84860000  0.87300000  1
  H  H657  1  0.49850000  0.17750000  0.07340000  1
  H  H658  1  0.02420000  0.70880000  0.55360000  1
  H  H659  1  0.28890000  0.97630000  0.55600000  1
  H  H660  1  0.94410000  0.63170000  0.93100000  1
  H  H661  1  0.06350000  0.75250000  0.45440000  1
  H  H662  1  0.14700000  0.83680000  0.41540000  1
  H  H663  1  0.99820000  0.69320000  0.40420000  1
  H  H664  1  0.07680000  0.77220000  0.61300000  1
  H  H665  1  0.93220000  0.62820000  0.98460000  1
  H  H666  1  0.26140000  0.95780000  0.21700000  1
  H  H667  1  0.78190000  0.47930000  0.51340000  1
  H  H668  1  0.60010000  0.29770000  0.93380000  1
  H  H669  1  0.04950000  0.75170000  0.75640000  1
  H  H670  1  0.81500000  0.51860000  0.79840000  1
  H  H671  1  0.63370000  0.34010000  0.78240000  1
  H  H672  1  0.50340000  0.21080000  0.68260000  1
  H  H673  1  0.86940000  0.57740000  0.52300000  1
  H  H674  1  0.36010000  0.07150000  0.45660000  1
  H  H675  1  0.91350000  0.62510000  0.66880000  1
  H  H676  1  0.17520000  0.88700000  0.05360000  1
  H  H677  1  0.58260000  0.30180000  0.36140000  1
  H  H678  1  0.43980000  0.16120000  0.25880000  1
  H  H679  1  0.49310000  0.21690000  0.26260000  1
  H  H680  1  0.03060000  0.76000000  0.32480000  1
  H  H681  1  0.26570000  0.99850000  0.29980000  1
  H  H682  1  0.86840000  0.60580000  0.92100000  1
  H  H683  1  0.89130000  0.63210000  0.25860000  1
  H  H684  1  0.97540000  0.71740000  0.13900000  1
  H  H685  1  0.68000000  0.42380000  0.49820000  1
  H  H686  1  0.03660000  0.78240000  0.55380000  1
  H  H687  1  0.77420000  0.52260000  0.71880000  1
  H  H688  1  0.67480000  0.42460000  0.55560000  1
  H  H689  1  0.67460000  0.42480000  0.05560000  1
  H  H690  1  0.77260000  0.52420000  0.21880000  1
  H  H691  1  0.03240000  0.78660000  0.05380000  1
  H  H692  1  0.67380000  0.43000000  0.99820000  1
  H  H693  1  0.96740000  0.72540000  0.63900000  1
  H  H694  1  0.88210000  0.64130000  0.75860000  1
  H  H695  1  0.85580000  0.61840000  0.42100000  1
  H  H696  1  0.24850000  0.01570000  0.79980000  1
  H  H697  1  0.01000000  0.78060000  0.82480000  1
  H  H698  1  0.46690000  0.24310000  0.76260000  1
  H  H699  1  0.41120000  0.18980000  0.75880000  1
  H  H700  1  0.55180000  0.33260000  0.86140000  1
  H  H701  1  0.13700000  0.92520000  0.55360000  1
  H  H702  1  0.87510000  0.66350000  0.16880000  1
  H  H703  1  0.32150000  0.11010000  0.95660000  1
  H  H704  1  0.82740000  0.61940000  0.02300000  1
  H  H705  1  0.46080000  0.25340000  0.18260000  1
  H  H706  1  0.59010000  0.38370000  0.28240000  1
  H  H707  1  0.76860000  0.56500000  0.29840000  1
  H  H708  1  0.00170000  0.79950000  0.25640000  1
  H  H709  1  0.54770000  0.35010000  0.43380000  1
  H  H710  1  0.72930000  0.53190000  0.01340000  1
  H  H711  1  0.20780000  0.01140000  0.71700000  1
  H  H712  1  0.87820000  0.68220000  0.48460000  1
  H  H713  1  0.02220000  0.82680000  0.11300000  1
  H  H714  1  0.94320000  0.74820000  0.90420000  1
  H  H715  1  0.08680000  0.89700000  0.91540000  1
  H  H716  1  0.00250000  0.81350000  0.95440000  1
  H  H717  1  0.88170000  0.69410000  0.43100000  1
  H  H718  1  0.22630000  0.03890000  0.05600000  1
  H  H719  1  0.95880000  0.77420000  0.05360000  1
  H  H720  1  0.42750000  0.24850000  0.57340000  1
  H  H721  1  0.09860000  0.92020000  0.37300000  1
  H  H722  1  0.36380000  0.18860000  0.52120000  1
  H  H723  1  0.15540000  0.98080000  0.53360000  1
  H  H724  1  0.54430000  0.37070000  0.31300000  1
  H  H725  1  0.85220000  0.68480000  0.08600000  1
  H  H726  1  0.31610000  0.14910000  0.24400000  1
  H  H727  1  0.12750000  0.96370000  0.97700000  1
  H  H728  1  0.63880000  0.47600000  0.52840000  1
  H  H729  1  0.47300000  0.31040000  0.41440000  1
  H  H730  1  0.80270000  0.64630000  0.74200000  1
  H  H731  1  0.26390000  0.10810000  0.89640000  1
  H  H732  1  0.85090000  0.69850000  0.73740000  1
  H  H733  1  0.19580000  0.04400000  0.96880000  1
  H  H734  1  0.59410000  0.44350000  0.34280000  1
  H  H735  1  0.95970000  0.80990000  0.88960000  1
  H  H736  1  0.38650000  0.23790000  0.72500000  1
  H  H737  1  0.07970000  0.93450000  0.49860000  1
  H  H738  1  0.41660000  0.27580000  0.08660000  1
  H  H739  1  0.86270000  0.72390000  0.66460000  1
  H  H740  1  0.51210000  0.37430000  0.47840000  1
  H  H741  1  0.94680000  0.80960000  0.44260000  1
  H  H742  1  0.92130000  0.78570000  0.72100000  1
  H  H743  1  0.38100000  0.25620000  0.51400000  1
  H  H744  1  0.96650000  0.84210000  0.55480000  1
  H  H745  1  0.50710000  0.38490000  0.94700000  1
  H  H746  1  0.00120000  0.88040000  0.27860000  1
  H  H747  1  0.24980000  0.13220000  0.95420000  1
  H  H748  1  0.34210000  0.22650000  0.62440000  1
  H  H749  1  0.20990000  0.09830000  0.10500000  1
  H  H750  1  0.77210000  0.66090000  0.04080000  1
  H  H751  1  0.45890000  0.34790000  0.32900000  1
  H  H752  1  0.09450000  0.98910000  0.28340000  1
  H  H753  1  0.93040000  0.82600000  0.23680000  1
  H  H754  1  0.07470000  0.97210000  0.91980000  1
  H  H755  1  0.19210000  0.09970000  0.04240000  1
  H  H756  1  0.35560000  0.27500000  0.44680000  1
  H  H757  1  0.34730000  0.26910000  0.38380000  1
  H  H758  1  0.26030000  0.18370000  0.29360000  1
  H  H759  1  0.26310000  0.18650000  0.05640000  1
  H  H760  1  0.61530000  0.54050000  0.30800000  1
  H  H761  1  0.67860000  0.60680000  0.94180000  1
  H  H762  1  0.44550000  0.37370000  0.88500000  1
  H  H763  1  0.05070000  0.97990000  0.31680000  1
  H  H764  1  0.51450000  0.44390000  0.61060000  1
  H  H765  1  0.52150000  0.45830000  0.55940000  1
  H  H766  1  0.39110000  0.32970000  0.13180000  1
  H  H767  1  0.33720000  0.28300000  0.06440000  1
  H  H768  1  0.20060000  0.14660000  0.74560000  1
  H  H769  1  0.46200000  0.41200000  0.26240000  1
  H  H770  1  0.84560000  0.79940000  0.68980000  1
  H  H771  1  0.09410000  0.05390000  0.33900000  1
  H  H772  1  0.60090000  0.56090000  0.73980000  1
  H  H773  1  0.37180000  0.34280000  0.43980000  1
  H  H774  1  0.61980000  0.59440000  0.87820000  1
  H  H775  1  0.80820000  0.78380000  0.47520000  1
  H  H776  1  0.44840000  0.42500000  0.54920000  1
  H  H777  1  0.47070000  0.44790000  0.94060000  1
  H  H778  1  0.99330000  0.97170000  0.52560000  1
  H  H779  1  0.30630000  0.28570000  0.71400000  1
  H  H780  1  0.68280000  0.66800000  0.06580000  1
  H  H781  1  0.54260000  0.52880000  0.93840000  1
  H  H782  1  0.24070000  0.22930000  0.65980000  1
  H  H783  1  0.38450000  0.37490000  0.23820000  1
  N  N784  1  0.99820000  0.03100000  0.40600000  1
  N  N785  1  0.73050000  0.77630000  0.57760000  1
  N  N786  1  0.49610000  0.63390000  0.40140000  1
  N  N787  1  0.11340000  0.27720000  0.57940000  1
  N  N788  1  0.52720000  0.86340000  0.07940000  1
  N  N789  1  0.88390000  0.24610000  0.90140000  1
  N  N790  1  0.02630000  0.48050000  0.07760000  1
  N  N791  1  0.28100000  0.74820000  0.90600000  1
  N  N792  1  0.84220000  0.37500000  0.09400000  1
  N  N793  1  0.40290000  0.94870000  0.92240000  1
  N  N794  1  0.34470000  0.98250000  0.09860000  1
  N  N795  1  0.78400000  0.44780000  0.92060000  1
  N  N796  1  0.69780000  0.53400000  0.42060000  1
  N  N797  1  0.23250000  0.09470000  0.59860000  1
  N  N798  1  0.19870000  0.15290000  0.42240000  1
  N  N799  1  0.62500000  0.59220000  0.59400000  1
