# generated using pymatgen
data_TmH3C9(NO2)3
_symmetry_space_group_name_H-M   'P 1'
_cell_length_a   6.02000000
_cell_length_b   12.77220000
_cell_length_c   13.16120000
_cell_angle_alpha   118.82900000
_cell_angle_beta   90.60900000
_cell_angle_gamma   91.68700000
_symmetry_Int_Tables_number   1
_chemical_formula_structural   TmH3C9(NO2)3
_chemical_formula_sum   'Tm2 H6 C18 N6 O12'
_cell_volume   885.78849702
_cell_formula_units_Z   2
loop_
 _symmetry_equiv_pos_site_id
 _symmetry_equiv_pos_as_xyz
  1  'x, y, z'
loop_
 _atom_site_type_symbol
 _atom_site_label
 _atom_site_symmetry_multiplicity
 _atom_site_fract_x
 _atom_site_fract_y
 _atom_site_fract_z
 _atom_site_occupancy
  Tm  Tm0  1  0.22197000  0.33935000  0.17829000  1
  Tm  Tm1  1  0.77803000  0.66065000  0.82171000  1
  H  H2  1  0.08320000  0.88190000  0.07850000  1
  H  H3  1  0.30720000  0.46590000  0.83930000  1
  H  H4  1  0.35380000  0.44100000  0.48490000  1
  H  H5  1  0.64620000  0.55900000  0.51510000  1
  H  H6  1  0.69280000  0.53410000  0.16070000  1
  H  H7  1  0.91680000  0.11810000  0.92150000  1
  C  C8  1  0.04730000  0.92880000  0.04470000  1
  C  C9  1  0.09600000  0.36000000  0.94560000  1
  C  C10  1  0.11730000  0.04930000  0.10000000  1
  C  C11  1  0.12390000  0.53960000  0.59660000  1
  C  C12  1  0.20840000  0.46520000  0.48940000  1
  C  C13  1  0.24980000  0.10700000  0.21310000  1
  C  C14  1  0.26180000  0.59410000  0.70610000  1
  C  C15  1  0.31160000  0.43370000  0.97240000  1
  C  C16  1  0.38940000  0.48110000  0.90550000  1
  C  C17  1  0.61060000  0.51890000  0.09450000  1
  C  C18  1  0.68840000  0.56630000  0.02760000  1
  C  C19  1  0.73820000  0.40590000  0.29390000  1
  C  C20  1  0.75020000  0.89300000  0.78690000  1
  C  C21  1  0.79160000  0.53480000  0.51060000  1
  C  C22  1  0.87610000  0.46040000  0.40340000  1
  C  C23  1  0.88270000  0.95070000  0.90000000  1
  C  C24  1  0.90400000  0.64000000  0.05440000  1
  C  C25  1  0.95270000  0.07120000  0.95530000  1
  N  N26  1  0.07030000  0.12110000  0.05580000  1
  N  N27  1  0.08580000  0.42690000  0.39140000  1
  N  N28  1  0.42360000  0.45220000  0.06990000  1
  N  N29  1  0.57640000  0.54780000  0.93010000  1
  N  N30  1  0.91420000  0.57310000  0.60860000  1
  N  N31  1  0.92970000  0.87890000  0.94420000  1
  O  O32  1  0.02020000  0.65560000  0.13880000  1
  O  O33  1  0.04970000  0.32090000  0.01470000  1
  O  O34  1  0.16430000  0.66580000  0.79690000  1
  O  O35  1  0.30040000  0.04400000  0.25620000  1
  O  O36  1  0.30660000  0.21440000  0.25200000  1
  O  O37  1  0.46310000  0.56890000  0.70400000  1
  O  O38  1  0.53690000  0.43110000  0.29600000  1
  O  O39  1  0.69340000  0.78560000  0.74800000  1
  O  O40  1  0.69960000  0.95600000  0.74380000  1
  O  O41  1  0.83570000  0.33420000  0.20310000  1
  O  O42  1  0.95030000  0.67910000  0.98530000  1
  O  O43  1  0.97980000  0.34440000  0.86120000  1
