# generated using pymatgen
data_CoH7C11N3O5
_symmetry_space_group_name_H-M   'P 1'
_cell_length_a   9.42930000
_cell_length_b   10.22590000
_cell_length_c   17.15330000
_cell_angle_alpha   91.63400000
_cell_angle_beta   99.93300000
_cell_angle_gamma   93.06200000
_symmetry_Int_Tables_number   1
_chemical_formula_structural   CoH7C11N3O5
_chemical_formula_sum   'Co4 H28 C44 N12 O20'
_cell_volume   1625.65794414
_cell_formula_units_Z   4
loop_
 _symmetry_equiv_pos_site_id
 _symmetry_equiv_pos_as_xyz
  1  'x, y, z'
loop_
 _atom_site_type_symbol
 _atom_site_label
 _atom_site_symmetry_multiplicity
 _atom_site_fract_x
 _atom_site_fract_y
 _atom_site_fract_z
 _atom_site_occupancy
  Co  Co0  1  0.17828000  0.60721000  0.13122000  1
  Co  Co1  1  0.19752000  0.82110000  0.29151000  1
  Co  Co2  1  0.80248000  0.17890000  0.70849000  1
  Co  Co3  1  0.82172000  0.39279000  0.86878000  1
  H  H4  1  0.01380000  0.83280000  0.79690000  1
  H  H5  1  0.02360000  0.99030000  0.40550000  1
  H  H6  1  0.04420000  0.03440000  0.81920000  1
  H  H7  1  0.08370000  0.69720000  0.79450000  1
  H  H8  1  0.10310000  0.35630000  0.67930000  1
  H  H9  1  0.11140000  0.89310000  0.06510000  1
  H  H10  1  0.15050000  0.59400000  0.93280000  1
  H  H11  1  0.22960000  0.27340000  0.27040000  1
  H  H12  1  0.31400000  0.52870000  0.45770000  1
  H  H13  1  0.33360000  0.14270000  0.49070000  1
  H  H14  1  0.33570000  0.33980000  0.84380000  1
  H  H15  1  0.38900000  0.32070000  0.67500000  1
  H  H16  1  0.41130000  0.21240000  0.61250000  1
  H  H17  1  0.44820000  0.97930000  0.79030000  1
  H  H18  1  0.55180000  0.02070000  0.20970000  1
  H  H19  1  0.58870000  0.78760000  0.38750000  1
  H  H20  1  0.61100000  0.67930000  0.32500000  1
  H  H21  1  0.66430000  0.66020000  0.15620000  1
  H  H22  1  0.66640000  0.85730000  0.50930000  1
  H  H23  1  0.68600000  0.47130000  0.54230000  1
  H  H24  1  0.77040000  0.72660000  0.72960000  1
  H  H25  1  0.84950000  0.40600000  0.06720000  1
  H  H26  1  0.88860000  0.10690000  0.93490000  1
  H  H27  1  0.89690000  0.64370000  0.32070000  1
  H  H28  1  0.91630000  0.30280000  0.20550000  1
  H  H29  1  0.95580000  0.96560000  0.18080000  1
  H  H30  1  0.97640000  0.00970000  0.59450000  1
  H  H31  1  0.98620000  0.16720000  0.20310000  1
  C  C32  1  0.03360000  0.08630000  0.60920000  1
  C  C33  1  0.05460000  0.28800000  0.84220000  1
  C  C34  1  0.09690000  0.78500000  0.81850000  1
  C  C35  1  0.09860000  0.27310000  0.65530000  1
  C  C36  1  0.11290000  0.84030000  0.02030000  1
  C  C37  1  0.13530000  0.67780000  0.95080000  1
  C  C38  1  0.13820000  0.06730000  0.81970000  1
  C  C39  1  0.17320000  0.20020000  0.83180000  1
  C  C40  1  0.23840000  0.52960000  0.30070000  1
  C  C41  1  0.24440000  0.98370000  0.80830000  1
  C  C42  1  0.25540000  0.04920000  0.34260000  1
  C  C43  1  0.25550000  0.29010000  0.32470000  1
  C  C44  1  0.27060000  0.41930000  0.35600000  1
  C  C45  1  0.27960000  0.18780000  0.37560000  1
  C  C46  1  0.30490000  0.44310000  0.43690000  1
  C  C47  1  0.31180000  0.25100000  0.83260000  1
  C  C48  1  0.31590000  0.21170000  0.45690000  1
  C  C49  1  0.32550000  0.34040000  0.48700000  1
  C  C50  1  0.34990000  0.28150000  0.62300000  1
  C  C51  1  0.37980000  0.03470000  0.80300000  1
  C  C52  1  0.41580000  0.16680000  0.81630000  1
  C  C53  1  0.43310000  0.78080000  0.19000000  1
  C  C54  1  0.56690000  0.21920000  0.81000000  1
  C  C55  1  0.58420000  0.83320000  0.18370000  1
  C  C56  1  0.62020000  0.96530000  0.19700000  1
  C  C57  1  0.65010000  0.71850000  0.37700000  1
  C  C58  1  0.67450000  0.65960000  0.51300000  1
  C  C59  1  0.68410000  0.78830000  0.54310000  1
  C  C60  1  0.68820000  0.74900000  0.16740000  1
  C  C61  1  0.69510000  0.55690000  0.56310000  1
  C  C62  1  0.72040000  0.81220000  0.62440000  1
  C  C63  1  0.72940000  0.58070000  0.64400000  1
  C  C64  1  0.74450000  0.70990000  0.67530000  1
  C  C65  1  0.74460000  0.95080000  0.65740000  1
  C  C66  1  0.75560000  0.01630000  0.19170000  1
  C  C67  1  0.76160000  0.47040000  0.69930000  1
  C  C68  1  0.82680000  0.79980000  0.16820000  1
  C  C69  1  0.86180000  0.93270000  0.18030000  1
  C  C70  1  0.86470000  0.32220000  0.04920000  1
  C  C71  1  0.88710000  0.15970000  0.97970000  1
  C  C72  1  0.90140000  0.72690000  0.34470000  1
  C  C73  1  0.90310000  0.21500000  0.18150000  1
  C  C74  1  0.94540000  0.71200000  0.15780000  1
  C  C75  1  0.96640000  0.91370000  0.39080000  1
  N  N76  1  0.01450000  0.81120000  0.35210000  1
  N  N77  1  0.08870000  0.88580000  0.94900000  1
  N  N78  1  0.10590000  0.77770000  0.90380000  1
  N  N79  1  0.14020000  0.71160000  0.02510000  1
  N  N80  1  0.16420000  0.10130000  0.59380000  1
  N  N81  1  0.20510000  0.22410000  0.62400000  1
  N  N82  1  0.79490000  0.77590000  0.37600000  1
  N  N83  1  0.83580000  0.89870000  0.40620000  1
  N  N84  1  0.85980000  0.28840000  0.97490000  1
  N  N85  1  0.89410000  0.22230000  0.09620000  1
  N  N86  1  0.91130000  0.11420000  0.05100000  1
  N  N87  1  0.98550000  0.18880000  0.64790000  1
  O  O88  1  0.07420000  0.75470000  0.18277000  1
  O  O89  1  0.08180000  0.39710000  0.87670000  1
  O  O90  1  0.17680000  0.02800000  0.27594000  1
  O  O91  1  0.19670000  0.49910000  0.22860000  1
  O  O92  1  0.22330000  0.84840000  0.79930000  1
  O  O93  1  0.25430000  0.64350000  0.33114000  1
  O  O94  1  0.30730000  0.95700000  0.38340000  1
  O  O95  1  0.35330000  0.37710000  0.56622000  1
  O  O96  1  0.36830000  0.84710000  0.23150000  1
  O  O97  1  0.38830000  0.67510000  0.15250000  1
  O  O98  1  0.61170000  0.32490000  0.84750000  1
  O  O99  1  0.63170000  0.15290000  0.76850000  1
  O  O100  1  0.64670000  0.62290000  0.43378000  1
  O  O101  1  0.69270000  0.04300000  0.61660000  1
  O  O102  1  0.74570000  0.35650000  0.66886000  1
  O  O103  1  0.77670000  0.15160000  0.20070000  1
  O  O104  1  0.80330000  0.50090000  0.77140000  1
  O  O105  1  0.82320000  0.97200000  0.72406000  1
  O  O106  1  0.91820000  0.60290000  0.12330000  1
  O  O107  1  0.92580000  0.24530000  0.81723000  1
