# generated using pymatgen
data_CoH8C11NO4
_symmetry_space_group_name_H-M   'P 1'
_cell_length_a   9.83850000
_cell_length_b   11.06290000
_cell_length_c   13.53980000
_cell_angle_alpha   66.61000000
_cell_angle_beta   85.89800000
_cell_angle_gamma   69.71700000
_symmetry_Int_Tables_number   1
_chemical_formula_structural   CoH8C11NO4
_chemical_formula_sum   'Co4 H32 C44 N4 O16'
_cell_volume   1264.98451098
_cell_formula_units_Z   4
loop_
 _symmetry_equiv_pos_site_id
 _symmetry_equiv_pos_as_xyz
  1  'x, y, z'
loop_
 _atom_site_type_symbol
 _atom_site_label
 _atom_site_symmetry_multiplicity
 _atom_site_fract_x
 _atom_site_fract_y
 _atom_site_fract_z
 _atom_site_occupancy
  Co  Co0  1  0.10743000  0.97677000  0.20252000  1
  Co  Co1  1  0.17053000  0.94482000  0.98566000  1
  Co  Co2  1  0.82947000  0.05518000  0.01434000  1
  Co  Co3  1  0.89257000  0.02323000  0.79748000  1
  H  H4  1  0.04210000  0.82800000  0.12930000  1
  H  H5  1  0.06520000  0.24460000  0.44100000  1
  H  H6  1  0.08090000  0.77590000  0.42060000  1
  H  H7  1  0.12150000  0.40870000  0.10460000  1
  H  H8  1  0.13590000  0.82160000  0.73450000  1
  H  H9  1  0.20770000  0.17070000  0.76880000  1
  H  H10  1  0.24920000  0.15790000  0.34440000  1
  H  H11  1  0.29470000  0.83120000  0.59170000  1
  H  H12  1  0.32990000  0.63310000  0.87470000  1
  H  H13  1  0.35260000  0.25010000  0.89600000  1
  H  H14  1  0.35810000  0.19490000  0.63050000  1
  H  H15  1  0.39560000  0.21180000  0.21600000  1
  H  H16  1  0.41820000  0.33290000  0.73430000  1
  H  H17  1  0.44190000  0.89160000  0.45990000  1
  H  H18  1  0.44630000  0.77300000  0.92060000  1
  H  H19  1  0.47840000  0.58540000  0.33450000  1
  H  H20  1  0.52160000  0.41460000  0.66550000  1
  H  H21  1  0.55370000  0.22700000  0.07940000  1
  H  H22  1  0.55810000  0.10840000  0.54010000  1
  H  H23  1  0.58180000  0.66710000  0.26570000  1
  H  H24  1  0.60440000  0.78820000  0.78400000  1
  H  H25  1  0.64190000  0.80510000  0.36950000  1
  H  H26  1  0.64740000  0.74990000  0.10400000  1
  H  H27  1  0.67010000  0.36690000  0.12530000  1
  H  H28  1  0.70530000  0.16880000  0.40830000  1
  H  H29  1  0.75080000  0.84210000  0.65560000  1
  H  H30  1  0.79230000  0.82930000  0.23120000  1
  H  H31  1  0.86410000  0.17840000  0.26550000  1
  H  H32  1  0.87850000  0.59130000  0.89540000  1
  H  H33  1  0.91910000  0.22410000  0.57940000  1
  H  H34  1  0.93480000  0.75540000  0.55900000  1
  H  H35  1  0.95790000  0.17200000  0.87070000  1
  C  C36  1  0.00240000  0.85760000  0.41710000  1
  C  C37  1  0.08370000  0.15610000  0.49970000  1
  C  C38  1  0.12220000  0.90790000  0.67430000  1
  C  C39  1  0.15460000  0.66430000  0.02620000  1
  C  C40  1  0.17830000  0.41920000  0.04400000  1
  C  C41  1  0.18870000  0.18470000  0.05580000  1
  C  C42  1  0.19420000  0.04470000  0.50070000  1
  C  C43  1  0.21250000  0.54220000  0.99230000  1
  C  C44  1  0.21760000  0.91330000  0.58920000  1
  C  C45  1  0.22850000  0.31330000  0.00540000  1
  C  C46  1  0.28480000  0.07070000  0.40470000  1
  C  C47  1  0.28950000  0.09130000  0.77250000  1
  C  C48  1  0.30380000  0.55170000  0.90830000  1
  C  C49  1  0.31810000  0.32360000  0.92100000  1
  C  C50  1  0.35710000  0.44260000  0.87310000  1
  C  C51  1  0.36920000  0.76100000  0.19980000  1
  C  C52  1  0.37900000  0.10640000  0.68960000  1
  C  C53  1  0.40860000  0.98000000  0.40040000  1
  C  C54  1  0.42800000  0.86030000  0.86070000  1
  C  C55  1  0.47690000  0.13140000  0.22080000  1
  C  C56  1  0.49760000  0.36620000  0.73970000  1
  C  C57  1  0.49890000  0.99470000  0.69100000  1
  C  C58  1  0.50110000  0.00530000  0.30900000  1
  C  C59  1  0.50240000  0.63380000  0.26030000  1
  C  C60  1  0.52310000  0.86860000  0.77920000  1
  C  C61  1  0.57200000  0.13970000  0.13930000  1
  C  C62  1  0.59140000  0.02000000  0.59960000  1
  C  C63  1  0.62100000  0.89360000  0.31040000  1
  C  C64  1  0.63080000  0.23900000  0.80020000  1
  C  C65  1  0.64290000  0.55740000  0.12690000  1
  C  C66  1  0.68190000  0.67640000  0.07900000  1
  C  C67  1  0.69620000  0.44830000  0.09170000  1
  C  C68  1  0.71050000  0.90870000  0.22750000  1
  C  C69  1  0.71520000  0.92930000  0.59530000  1
  C  C70  1  0.77150000  0.68670000  0.99460000  1
  C  C71  1  0.78240000  0.08670000  0.41080000  1
  C  C72  1  0.78750000  0.45780000  0.00770000  1
  C  C73  1  0.80580000  0.95530000  0.49930000  1
  C  C74  1  0.81130000  0.81530000  0.94420000  1
  C  C75  1  0.82170000  0.58080000  0.95600000  1
  C  C76  1  0.84540000  0.33570000  0.97380000  1
  C  C77  1  0.87780000  0.09210000  0.32570000  1
  C  C78  1  0.91630000  0.84390000  0.50030000  1
  C  C79  1  0.99760000  0.14240000  0.58290000  1
  N  N80  1  0.01340000  0.02440000  0.66940000  1
  N  N81  1  0.31130000  0.97040000  0.85850000  1
  N  N82  1  0.68870000  0.02960000  0.14150000  1
  N  N83  1  0.98660000  0.97560000  0.33060000  1
  O  O84  1  0.02250000  0.92060000  0.10960000  1
  O  O85  1  0.10970000  0.64530000  0.11820000  1
  O  O86  1  0.13580000  0.15960000  0.14670000  1
  O  O87  1  0.15900000  0.77970000  0.95710000  1
  O  O88  1  0.20990000  0.10860000  0.00350000  1
  O  O89  1  0.29500000  0.82000000  0.25930000  1
  O  O90  1  0.34530000  0.79430000  0.10230000  1
  O  O91  1  0.44590000  0.46560000  0.78880000  1
  O  O92  1  0.55410000  0.53440000  0.21120000  1
  O  O93  1  0.65470000  0.20570000  0.89770000  1
  O  O94  1  0.70500000  0.18000000  0.74070000  1
  O  O95  1  0.79010000  0.89140000  0.99650000  1
  O  O96  1  0.84100000  0.22030000  0.04290000  1
  O  O97  1  0.86420000  0.84040000  0.85330000  1
  O  O98  1  0.89030000  0.35470000  0.88180000  1
  O  O99  1  0.97750000  0.07940000  0.89040000  1
