# generated using pymatgen
data_Cu17H144C168(N30Cl)2
_symmetry_space_group_name_H-M   'P 1'
_cell_length_a   20.01400000
_cell_length_b   21.45470888
_cell_length_c   25.08500000
_cell_angle_alpha   81.09450133
_cell_angle_beta   70.61600000
_cell_angle_gamma   62.19755336
_symmetry_Int_Tables_number   1
_chemical_formula_structural   Cu17H144C168(N30Cl)2
_chemical_formula_sum   'Cu34 H288 C336 N120 Cl4'
_cell_volume   8987.84051649
_cell_formula_units_Z   2
loop_
 _symmetry_equiv_pos_site_id
 _symmetry_equiv_pos_as_xyz
  1  'x, y, z'
loop_
 _atom_site_type_symbol
 _atom_site_label
 _atom_site_symmetry_multiplicity
 _atom_site_fract_x
 _atom_site_fract_y
 _atom_site_fract_z
 _atom_site_occupancy
  C  C0  1  0.11406000  0.75628000  0.00650000  1
  C  C1  1  0.87034000  0.24372000  0.50650000  1
  C  C2  1  0.40471000  0.16858000  0.58043000  1
  C  C3  1  0.57329000  0.83142000  0.08043000  1
  C  C4  1  0.17141000  0.63218000  0.51115000  1
  C  C5  1  0.80359000  0.36782000  0.01115000  1
  C  C6  1  0.39244000  0.18526000  0.40922000  1
  C  C7  1  0.57770000  0.81474000  0.90922000  1
  C  C8  1  0.28228000  0.40004000  0.60944000  1
  C  C9  1  0.68232000  0.59996000  0.10944000  1
  C  C10  1  0.42175000  0.11230000  0.61886000  1
  C  C11  1  0.53405000  0.88770000  0.11886000  1
  C  C12  1  0.23899000  0.47082000  0.62457000  1
  C  C13  1  0.70981000  0.52918000  0.12457000  1
  C  C14  1  0.12228000  0.70144000  0.52814000  1
  C  C15  1  0.82372000  0.29856000  0.02814000  1
  C  C16  1  0.42195000  0.10126000  0.85043000  1
  C  C17  1  0.52321000  0.89874000  0.35043000  1
  C  C18  1  0.21277000  0.51866000  0.89890000  1
  C  C19  1  0.73143000  0.48134000  0.39890000  1
  C  C20  1  0.15424000  0.61512000  0.04056000  1
  C  C21  1  0.76936000  0.38488000  0.54056000  1
  C  C22  1  0.41410000  0.08660000  0.05740000  1
  C  C23  1  0.50070000  0.91340000  0.55740000  1
  C  C24  1  0.37805000  0.15710000  0.07426000  1
  C  C25  1  0.53515000  0.84290000  0.57426000  1
  C  C26  1  0.26614000  0.37872000  0.93160000  1
  C  C27  1  0.64486000  0.62128000  0.43160000  1
  C  C28  1  0.17592000  0.54176000  0.05829000  1
  C  C29  1  0.71768000  0.45824000  0.55829000  1
  C  C30  1  0.07181000  0.73978000  0.05810000  1
  C  C31  1  0.81159000  0.26022000  0.55810000  1
  C  C32  1  0.34395000  0.18810000  0.55802000  1
  C  C33  1  0.53205000  0.81190000  0.05802000  1
  C  C34  1  0.16512000  0.52936000  0.22690000  1
  C  C35  1  0.69448000  0.47064000  0.72690000  1
  C  C36  1  0.25526000  0.34844000  0.64172000  1
  C  C37  1  0.60370000  0.65156000  0.14172000  1
  C  C38  1  0.09097000  0.67066000  0.07490000  1
  C  C39  1  0.76163000  0.32934000  0.57490000  1
  C  C40  1  0.19265000  0.45950000  0.24370000  1
  C  C41  1  0.65215000  0.54050000  0.74370000  1
  C  C42  1  0.37635000  0.07610000  0.63200000  1
  C  C43  1  0.45245000  0.92390000  0.13200000  1
  C  C44  1  0.11386000  0.59488000  0.73819000  1
  C  C45  1  0.70874000  0.40512000  0.23819000  1
  C  C46  1  0.16151000  0.49658000  0.93880000  1
  C  C47  1  0.65809000  0.50342000  0.43880000  1
  C  C48  1  0.37763000  0.05876000  0.80547000  1
  C  C49  1  0.43639000  0.94124000  0.30547000  1
  C  C50  1  0.13836000  0.53648000  0.77086000  1
  C  C51  1  0.67484000  0.46352000  0.27086000  1
  C  C52  1  0.37494000  0.05972000  0.03980000  1
  C  C53  1  0.43466000  0.94028000  0.53980000  1
  C  C54  1  0.18841000  0.42718000  0.95580000  1
  C  C55  1  0.61559000  0.57282000  0.45580000  1
  C  C56  1  0.30270000  0.19840000  0.06980000  1
  C  C57  1  0.50110000  0.80160000  0.56980000  1
  C  C58  1  0.36824000  0.05072000  0.25413000  1
  C  C59  1  0.41896000  0.94928000  0.75413000  1
  C  C60  1  0.04897000  0.68826000  0.41130000  1
  C  C61  1  0.73723000  0.31174000  0.91130000  1
  C  C62  1  0.16822000  0.44716000  0.09618000  1
  C  C63  1  0.61538000  0.55284000  0.59618000  1
  C  C64  1  0.29504000  0.19000000  0.38748000  1
  C  C65  1  0.48504000  0.81000000  0.88748000  1
  C  C66  1  0.09984000  0.57952000  0.26360000  1
  C  C67  1  0.67936000  0.42048000  0.76360000  1
  C  C68  1  0.00677000  0.75706000  0.43160000  1
  C  C69  1  0.76383000  0.24294000  0.93160000  1
  C  C70  1  0.15590000  0.43960000  0.29580000  1
  C  C71  1  0.59550000  0.56040000  0.79580000  1
  C  C72  1  0.29842000  0.15216000  0.57120000  1
  C  C73  1  0.45058000  0.84784000  0.07120000  1
  C  C74  1  0.96550000  0.80280000  0.24250000  1
  C  C75  1  0.76830000  0.19720000  0.74250000  1
  C  C76  1  0.36008000  0.01324000  0.77999000  1
  C  C77  1  0.37332000  0.98676000  0.27999000  1
  C  C78  1  0.31554000  0.09532000  0.60920000  1
  C  C79  1  0.41086000  0.90468000  0.10920000  1
  C  C80  1  0.05761000  0.60818000  0.71197000  1
  C  C81  1  0.66579000  0.39182000  0.21197000  1
  C  C82  1  0.31375000  0.08850000  0.22500000  1
  C  C83  1  0.40225000  0.91150000  0.72500000  1
  C  C84  1  0.04133000  0.63294000  0.44551000  1
  C  C85  1  0.67427000  0.36706000  0.94551000  1
  C  C86  1  0.10736000  0.48840000  0.77895000  1
  C  C87  1  0.59576000  0.51160000  0.27895000  1
  C  C88  1  0.13947000  0.42262000  0.80991000  1
  C  C89  1  0.56209000  0.57738000  0.30991000  1
  C  C90  1  0.26343000  0.17154000  0.05260000  1
  C  C91  1  0.43497000  0.82846000  0.55260000  1
  C  C92  1  0.29909000  0.09982000  0.03840000  1
  C  C93  1  0.39891000  0.90018000  0.53840000  1
  C  C94  1  0.95380000  0.78120000  0.29920000  1
  C  C95  1  0.73500000  0.21880000  0.79920000  1
  C  C96  1  0.17106000  0.34508000  0.16088000  1
  C  C97  1  0.51614000  0.65492000  0.66088000  1
  C  C98  1  0.06305000  0.56030000  0.31610000  1
  C  C99  1  0.62335000  0.43970000  0.81610000  1
  C  C100  1  0.95278000  0.77004000  0.48430000  1
  C  C101  1  0.72282000  0.22996000  0.98430000  1
  C  C102  1  0.09022000  0.48996000  0.33359000  1
  C  C103  1  0.58018000  0.51004000  0.83359000  1
  C  C104  1  0.13619000  0.39740000  0.12454000  1
  C  C105  1  0.53359000  0.60260000  0.62454000  1
  C  C106  1  0.18677000  0.29412000  0.68626000  1
  C  C107  1  0.48089000  0.70588000  0.18626000  1
  C  C108  1  0.93285000  0.78710000  0.21000000  1
  C  C109  1  0.71995000  0.21290000  0.71000000  1
  C  C110  1  0.24139000  0.16922000  0.37586000  1
  C  C111  1  0.41061000  0.83078000  0.87586000  1
  C  C112  1  0.15143000  0.33370000  0.86582000  1
  C  C113  1  0.48513000  0.66630000  0.36582000  1
  C  C114  1  0.99070000  0.64514000  0.50038000  1
  C  C115  1  0.63584000  0.35486000  0.00038000  1
  C  C116  1  0.91012000  0.80196000  0.00450000  1
  C  C117  1  0.71208000  0.19804000  0.50450000  1
  C  C118  1  0.02442000  0.56156000  0.72170000  1
  C  C119  1  0.58598000  0.43844000  0.22170000  1
  C  C120  1  0.93709000  0.73242000  0.99380000  1
  C  C121  1  0.66951000  0.26758000  0.49380000  1
  C  C122  1  0.94557000  0.71466000  0.51906000  1
  C  C123  1  0.66023000  0.28534000  0.01906000  1
  C  C124  1  0.28402000  0.03616000  0.77710000  1
  C  C125  1  0.32018000  0.96384000  0.27710000  1
  C  C126  1  0.86695000  0.86890000  0.63930000  1
  C  C127  1  0.73585000  0.13110000  0.13930000  1
  C  C128  1  0.04938000  0.50244000  0.75416000  1
  C  C129  1  0.55182000  0.49756000  0.25416000  1
  C  C130  1  0.19452000  0.20816000  0.34180000  1
  C  C131  1  0.40268000  0.79184000  0.84180000  1
  C  C132  1  0.26218000  0.06424000  0.22140000  1
  C  C133  1  0.32642000  0.93576000  0.72140000  1
  C  C134  1  0.14233000  0.29654000  0.18440000  1
  C  C135  1  0.43887000  0.70346000  0.68440000  1
  C  C136  1  0.23387000  0.10966000  0.40210000  1
  C  C137  1  0.34353000  0.89034000  0.90210000  1
  C  C138  1  0.98957000  0.58788000  0.54039000  1
  C  C139  1  0.57745000  0.41212000  0.04039000  1
  C  C140  1  0.95759000  0.64882000  0.86170000  1
  C  C141  1  0.60641000  0.35118000  0.36170000  1
  C  C142  1  0.04636000  0.46924000  0.38693000  1
  C  C143  1  0.51560000  0.53076000  0.88693000  1
  C  C144  1  0.90755000  0.74590000  0.32260000  1
  C  C145  1  0.65345000  0.25410000  0.82260000  1
  C  C146  1  0.86098000  0.82784000  0.05710000  1
  C  C147  1  0.68882000  0.17216000  0.55710000  1
  C  C148  1  0.13170000  0.28612000  0.91061000  1
  C  C149  1  0.41782000  0.71388000  0.41061000  1
  C  C150  1  0.81956000  0.90908000  0.60520000  1
  C  C151  1  0.72864000  0.09092000  0.10520000  1
  C  C152  1  0.92110000  0.70180000  0.82710000  1
  C  C153  1  0.62290000  0.29820000  0.32710000  1
  C  C154  1  0.07054000  0.39992000  0.11463000  1
  C  C155  1  0.47046000  0.60008000  0.61463000  1
  C  C156  1  0.16044000  0.21572000  0.90080000  1
  C  C157  1  0.37616000  0.78428000  0.40080000  1
  C  C158  1  0.26516000  0.00148000  0.24920000  1
  C  C159  1  0.26664000  0.99852000  0.74920000  1
  C  C160  1  0.85886000  0.81128000  0.66610000  1
  C  C161  1  0.67014000  0.18872000  0.16610000  1
  C  C162  1  0.88765000  0.75110000  0.23360000  1
  C  C163  1  0.63875000  0.24890000  0.73360000  1
  C  C164  1  0.91691000  0.68858000  0.03600000  1
  C  C165  1  0.60549000  0.31142000  0.53600000  1
  C  C166  1  0.12668000  0.26816000  0.71063000  1
  C  C167  1  0.39484000  0.73184000  0.21063000  1
  C  C168  1  0.87332000  0.73184000  0.28937000  1
  C  C169  1  0.60516000  0.26816000  0.78937000  1
  C  C170  1  0.08309000  0.31142000  0.96400000  1
  C  C171  1  0.39451000  0.68858000  0.46400000  1
  C  C172  1  0.11235000  0.24890000  0.76640000  1
  C  C173  1  0.36125000  0.75110000  0.26640000  1
  C  C174  1  0.14114000  0.18872000  0.33390000  1
  C  C175  1  0.32986000  0.81128000  0.83390000  1
  C  C176  1  0.73484000  0.99852000  0.75080000  1
  C  C177  1  0.73336000  0.00148000  0.25080000  1
  C  C178  1  0.83956000  0.78428000  0.09920000  1
  C  C179  1  0.62384000  0.21572000  0.59920000  1
  C  C180  1  0.92946000  0.60008000  0.88537000  1
  C  C181  1  0.52954000  0.39992000  0.38537000  1
  C  C182  1  0.07890000  0.29820000  0.17290000  1
  C  C183  1  0.37710000  0.70180000  0.67290000  1
  C  C184  1  0.18044000  0.09092000  0.39480000  1
  C  C185  1  0.27136000  0.90908000  0.89480000  1
  C  C186  1  0.86830000  0.71388000  0.08939000  1
  C  C187  1  0.58218000  0.28612000  0.58939000  1
  C  C188  1  0.13902000  0.17216000  0.94290000  1
  C  C189  1  0.31118000  0.82784000  0.44290000  1
  C  C190  1  0.09245000  0.25410000  0.67740000  1
  C  C191  1  0.34655000  0.74590000  0.17740000  1
  C  C192  1  0.95364000  0.53076000  0.61307000  1
  C  C193  1  0.48440000  0.46924000  0.11307000  1
  C  C194  1  0.04241000  0.35118000  0.13830000  1
  C  C195  1  0.39359000  0.64882000  0.63830000  1
  C  C196  1  0.01043000  0.41212000  0.45961000  1
  C  C197  1  0.42255000  0.58788000  0.95961000  1
  C  C198  1  0.76613000  0.89034000  0.59790000  1
  C  C199  1  0.65647000  0.10966000  0.09790000  1
  C  C200  1  0.85767000  0.70346000  0.81560000  1
  C  C201  1  0.56113000  0.29654000  0.31560000  1
  C  C202  1  0.73782000  0.93576000  0.77860000  1
  C  C203  1  0.67358000  0.06424000  0.27860000  1
  C  C204  1  0.80548000  0.79184000  0.65820000  1
  C  C205  1  0.59732000  0.20816000  0.15820000  1
  C  C206  1  0.95062000  0.49756000  0.24584000  1
  C  C207  1  0.44818000  0.50244000  0.74584000  1
  C  C208  1  0.13305000  0.13110000  0.36070000  1
  C  C209  1  0.26415000  0.86890000  0.86070000  1
  C  C210  1  0.71598000  0.96384000  0.22290000  1
  C  C211  1  0.67982000  0.03616000  0.72290000  1
  C  C212  1  0.05443000  0.28534000  0.48094000  1
  C  C213  1  0.33977000  0.71466000  0.98094000  1
  C  C214  1  0.06291000  0.26758000  0.00620000  1
  C  C215  1  0.33049000  0.73242000  0.50620000  1
  C  C216  1  0.97558000  0.43844000  0.27830000  1
  C  C217  1  0.41402000  0.56156000  0.77830000  1
  C  C218  1  0.08988000  0.19804000  0.99550000  1
  C  C219  1  0.28792000  0.80196000  0.49550000  1
  C  C220  1  0.00930000  0.35486000  0.49962000  1
  C  C221  1  0.36416000  0.64514000  0.99962000  1
  C  C222  1  0.84857000  0.66630000  0.13418000  1
  C  C223  1  0.51487000  0.33370000  0.63418000  1
  C  C224  1  0.75861000  0.83078000  0.62414000  1
  C  C225  1  0.58939000  0.16922000  0.12414000  1
  C  C226  1  0.06715000  0.21290000  0.79000000  1
  C  C227  1  0.28005000  0.78710000  0.29000000  1
  C  C228  1  0.81323000  0.70588000  0.31374000  1
  C  C229  1  0.51911000  0.29412000  0.81374000  1
  C  C230  1  0.86381000  0.60260000  0.87546000  1
  C  C231  1  0.46641000  0.39740000  0.37546000  1
  C  C232  1  0.90978000  0.51004000  0.66641000  1
  C  C233  1  0.41982000  0.48996000  0.16641000  1
  C  C234  1  0.04722000  0.22996000  0.51570000  1
  C  C235  1  0.27718000  0.77004000  0.01570000  1
  C  C236  1  0.93695000  0.43970000  0.68390000  1
  C  C237  1  0.37665000  0.56030000  0.18390000  1
  C  C238  1  0.82894000  0.65492000  0.83912000  1
  C  C239  1  0.48386000  0.34508000  0.33912000  1
  C  C240  1  0.04620000  0.21880000  0.70080000  1
  C  C241  1  0.26500000  0.78120000  0.20080000  1
  C  C242  1  0.70091000  0.90018000  0.96160000  1
  C  C243  1  0.60109000  0.09982000  0.46160000  1
  C  C244  1  0.73657000  0.82846000  0.94740000  1
  C  C245  1  0.56503000  0.17154000  0.44740000  1
  C  C246  1  0.86053000  0.57738000  0.19009000  1
  C  C247  1  0.43791000  0.42262000  0.69009000  1
  C  C248  1  0.89264000  0.51160000  0.22105000  1
  C  C249  1  0.40424000  0.48840000  0.72105000  1
  C  C250  1  0.95867000  0.36706000  0.55449000  1
  C  C251  1  0.32573000  0.63294000  0.05449000  1
  C  C252  1  0.68625000  0.91150000  0.77500000  1
  C  C253  1  0.59775000  0.08850000  0.27500000  1
  C  C254  1  0.94239000  0.39182000  0.28803000  1
  C  C255  1  0.33421000  0.60818000  0.78803000  1
  C  C256  1  0.68446000  0.90468000  0.39080000  1
  C  C257  1  0.58914000  0.09532000  0.89080000  1
  C  C258  1  0.63992000  0.98676000  0.22001000  1
  C  C259  1  0.62668000  0.01324000  0.72001000  1
  C  C260  1  0.03450000  0.19720000  0.75750000  1
  C  C261  1  0.23170000  0.80280000  0.25750000  1
  C  C262  1  0.70158000  0.84784000  0.42880000  1
  C  C263  1  0.54942000  0.15216000  0.92880000  1
  C  C264  1  0.84410000  0.56040000  0.70420000  1
  C  C265  1  0.40450000  0.43960000  0.20420000  1
  C  C266  1  0.99323000  0.24294000  0.56840000  1
  C  C267  1  0.23617000  0.75706000  0.06840000  1
  C  C268  1  0.90016000  0.42048000  0.73640000  1
  C  C269  1  0.32064000  0.57952000  0.23640000  1
  C  C270  1  0.70496000  0.81000000  0.61252000  1
  C  C271  1  0.51496000  0.19000000  0.11252000  1
  C  C272  1  0.83178000  0.55284000  0.90382000  1
  C  C273  1  0.38462000  0.44716000  0.40382000  1
  C  C274  1  0.95103000  0.31174000  0.58870000  1
  C  C275  1  0.26277000  0.68826000  0.08870000  1
  C  C276  1  0.63176000  0.94928000  0.74587000  1
  C  C277  1  0.58104000  0.05072000  0.24587000  1
  C  C278  1  0.69730000  0.80160000  0.93020000  1
  C  C279  1  0.49890000  0.19840000  0.43020000  1
  C  C280  1  0.81159000  0.57282000  0.04420000  1
  C  C281  1  0.38441000  0.42718000  0.54420000  1
  C  C282  1  0.62506000  0.94028000  0.96020000  1
  C  C283  1  0.56534000  0.05972000  0.46020000  1
  C  C284  1  0.86164000  0.46352000  0.22914000  1
  C  C285  1  0.32516000  0.53648000  0.72914000  1
  C  C286  1  0.62237000  0.94124000  0.19453000  1
  C  C287  1  0.56361000  0.05876000  0.69453000  1
  C  C288  1  0.83849000  0.50342000  0.06120000  1
  C  C289  1  0.34191000  0.49658000  0.56120000  1
  C  C290  1  0.88614000  0.40512000  0.26181000  1
  C  C291  1  0.29126000  0.59488000  0.76181000  1
  C  C292  1  0.62365000  0.92390000  0.36800000  1
  C  C293  1  0.54755000  0.07610000  0.86800000  1
  C  C294  1  0.80735000  0.54050000  0.75630000  1
  C  C295  1  0.34785000  0.45950000  0.25630000  1
  C  C296  1  0.90903000  0.32934000  0.92510000  1
  C  C297  1  0.23837000  0.67066000  0.42510000  1
  C  C298  1  0.74474000  0.65156000  0.35828000  1
  C  C299  1  0.39630000  0.34844000  0.85828000  1
  C  C300  1  0.83488000  0.47064000  0.77310000  1
  C  C301  1  0.30552000  0.52936000  0.27310000  1
  C  C302  1  0.65605000  0.81190000  0.44198000  1
  C  C303  1  0.46795000  0.18810000  0.94198000  1
  C  C304  1  0.92819000  0.26022000  0.94190000  1
  C  C305  1  0.18841000  0.73978000  0.44190000  1
  C  C306  1  0.82408000  0.45824000  0.94171000  1
  C  C307  1  0.28232000  0.54176000  0.44171000  1
  C  C308  1  0.73386000  0.62128000  0.06840000  1
  C  C309  1  0.35514000  0.37872000  0.56840000  1
  C  C310  1  0.62195000  0.84290000  0.92574000  1
  C  C311  1  0.46485000  0.15710000  0.42574000  1
  C  C312  1  0.58590000  0.91340000  0.94260000  1
  C  C313  1  0.49930000  0.08660000  0.44260000  1
  C  C314  1  0.84576000  0.38488000  0.95944000  1
  C  C315  1  0.23064000  0.61512000  0.45944000  1
  C  C316  1  0.78723000  0.48134000  0.10110000  1
  C  C317  1  0.26857000  0.51866000  0.60110000  1
  C  C318  1  0.57805000  0.89874000  0.14957000  1
  C  C319  1  0.47679000  0.10126000  0.64957000  1
  C  C320  1  0.87772000  0.29856000  0.47186000  1
  C  C321  1  0.17628000  0.70144000  0.97186000  1
  C  C322  1  0.76101000  0.52918000  0.37543000  1
  C  C323  1  0.29019000  0.47082000  0.87543000  1
  C  C324  1  0.57825000  0.88770000  0.38114000  1
  C  C325  1  0.46595000  0.11230000  0.88114000  1
  C  C326  1  0.71772000  0.59996000  0.39056000  1
  C  C327  1  0.31768000  0.40004000  0.89056000  1
  C  C328  1  0.60756000  0.81474000  0.59078000  1
  C  C329  1  0.42230000  0.18526000  0.09078000  1
  C  C330  1  0.82859000  0.36782000  0.48885000  1
  C  C331  1  0.19641000  0.63218000  0.98885000  1
  C  C332  1  0.59529000  0.83142000  0.41957000  1
  C  C333  1  0.42671000  0.16858000  0.91957000  1
  C  C334  1  0.88594000  0.24372000  0.99350000  1
  C  C335  1  0.12966000  0.75628000  0.49350000  1
  Cl  Cl336  1  0.19367000  0.36244000  0.50799000  1
  Cl  Cl337  1  0.55611000  0.63756000  0.00799000  1
  Cl  Cl338  1  0.80633000  0.63756000  0.49201000  1
  Cl  Cl339  1  0.44389000  0.36244000  0.99201000  1
  Cu  Cu340  1  0.30807000  0.38386000  0.75000000  1
  Cu  Cu341  1  0.69193000  0.61614000  0.25000000  1
  Cu  Cu342  1  0.32259000  0.34214000  0.43232000  1
  Cu  Cu343  1  0.66473000  0.65786000  0.93232000  1
  Cu  Cu344  1  0.33309000  0.25652000  0.83196000  1
  Cu  Cu345  1  0.58961000  0.74348000  0.33196000  1
  Cu  Cu346  1  0.42150000  0.05086000  0.36768000  1
  Cu  Cu347  1  0.47236000  0.94914000  0.86768000  1
  Cu  Cu348  1  0.16192000  0.49016000  0.49668000  1
  Cu  Cu349  1  0.65208000  0.50984000  0.99668000  1
  Cu  Cu350  1  0.29646000  0.18922000  0.74641000  1
  Cu  Cu351  1  0.48568000  0.81078000  0.24641000  1
  Cu  Cu352  1  0.17872000  0.33776000  0.41289000  1
  Cu  Cu353  1  0.51648000  0.66224000  0.91289000  1
  Cu  Cu354  1  0.11085000  0.41210000  0.61229000  1
  Cu  Cu355  1  0.52295000  0.58790000  0.11229000  1
  Cu  Cu356  1  0.01327000  0.56350000  0.11885000  1
  Cu  Cu357  1  0.57677000  0.43650000  0.61885000  1
  Cu  Cu358  1  0.98673000  0.43650000  0.88115000  1
  Cu  Cu359  1  0.42323000  0.56350000  0.38115000  1
  Cu  Cu360  1  0.88915000  0.58790000  0.38771000  1
  Cu  Cu361  1  0.47705000  0.41210000  0.88771000  1
  Cu  Cu362  1  0.82128000  0.66224000  0.58711000  1
  Cu  Cu363  1  0.48352000  0.33776000  0.08711000  1
  Cu  Cu364  1  0.70354000  0.81078000  0.25359000  1
  Cu  Cu365  1  0.51432000  0.18922000  0.75359000  1
  Cu  Cu366  1  0.83808000  0.50984000  0.50332000  1
  Cu  Cu367  1  0.34792000  0.49016000  0.00332000  1
  Cu  Cu368  1  0.57850000  0.94914000  0.63232000  1
  Cu  Cu369  1  0.52764000  0.05086000  0.13232000  1
  Cu  Cu370  1  0.66691000  0.74348000  0.16804000  1
  Cu  Cu371  1  0.41039000  0.25652000  0.66804000  1
  Cu  Cu372  1  0.67741000  0.65786000  0.56768000  1
  Cu  Cu373  1  0.33527000  0.34214000  0.06768000  1
  H  H374  1  0.23940000  0.51580000  0.34770000  1
  H  H375  1  0.75520000  0.48420000  0.84770000  1
  H  H376  1  0.46570000  0.05740000  0.05810000  1
  H  H377  1  0.52310000  0.94260000  0.55810000  1
  H  H378  1  0.05740000  0.85960000  0.01220000  1
  H  H379  1  0.91700000  0.14040000  0.51220000  1
  H  H380  1  0.18790000  0.59140000  0.16450000  1
  H  H381  1  0.77930000  0.40860000  0.66450000  1
  H  H382  1  0.19510000  0.56580000  0.88800000  1
  H  H383  1  0.76090000  0.43420000  0.38800000  1
  H  H384  1  0.37170000  0.19300000  0.92990000  1
  H  H385  1  0.56470000  0.80700000  0.42990000  1
  H  H386  1  0.16470000  0.59620000  0.53470000  1
  H  H387  1  0.76090000  0.40380000  0.03470000  1
  H  H388  1  0.04100000  0.83520000  0.54120000  1
  H  H389  1  0.87620000  0.16480000  0.04120000  1
  H  H390  1  0.03340000  0.84840000  0.23950000  1
  H  H391  1  0.88180000  0.15160000  0.73950000  1
  H  H392  1  0.05100000  0.80460000  0.36590000  1
  H  H393  1  0.85560000  0.19540000  0.86590000  1
  H  H394  1  0.28370000  0.33180000  0.94300000  1
  H  H395  1  0.61550000  0.66820000  0.44300000  1
  H  H396  1  0.23670000  0.42520000  0.21950000  1
  H  H397  1  0.66190000  0.57480000  0.71950000  1
  H  H398  1  0.13520000  0.62640000  0.73340000  1
  H  H399  1  0.76160000  0.37360000  0.23340000  1
  H  H400  1  0.02100000  0.85060000  0.18380000  1
  H  H401  1  0.33320000  0.22620000  0.53350000  1
  H  H402  1  0.55940000  0.77380000  0.03350000  1
  H  H403  1  0.87160000  0.14940000  0.68380000  1
  H  H404  1  0.17630000  0.52860000  0.78800000  1
  H  H405  1  0.70490000  0.47140000  0.28800000  1
  H  H406  1  0.08380000  0.71140000  0.56320000  1
  H  H407  1  0.79520000  0.28860000  0.06320000  1
  H  H408  1  0.40190000  0.06800000  0.25660000  1
  H  H409  1  0.46990000  0.93200000  0.75660000  1
  H  H410  1  0.18910000  0.48620000  0.65100000  1
  H  H411  1  0.67530000  0.51380000  0.15100000  1
  H  H412  1  0.08260000  0.67920000  0.37450000  1
  H  H413  1  0.76180000  0.32080000  0.87450000  1
  H  H414  1  0.02970000  0.77600000  0.08170000  1
  H  H415  1  0.80570000  0.22400000  0.58170000  1
  H  H416  1  0.98960000  0.85500000  0.41190000  1
  H  H417  1  0.84460000  0.14500000  0.91190000  1
  H  H418  1  0.40080000  0.01280000  0.02860000  1
  H  H419  1  0.41360000  0.98720000  0.52860000  1
  H  H420  1  0.38710000  0.03800000  0.65680000  1
  H  H421  1  0.42510000  0.96200000  0.15680000  1
  H  H422  1  0.05680000  0.69380000  0.67050000  1
  H  H423  1  0.75060000  0.30620000  0.17050000  1
  H  H424  1  0.27800000  0.24600000  0.07880000  1
  H  H425  1  0.52400000  0.75400000  0.57880000  1
  H  H426  1  0.08050000  0.62660000  0.25300000  1
  H  H427  1  0.70710000  0.37340000  0.75300000  1
  H  H428  1  0.06150000  0.66100000  0.10960000  1
  H  H429  1  0.72250000  0.33900000  0.60960000  1
  H  H430  1  0.92830000  0.92220000  0.62730000  1
  H  H431  1  0.85050000  0.07780000  0.12730000  1
  H  H432  1  0.21400000  0.34300000  0.16930000  1
  H  H433  1  0.55700000  0.65700000  0.66930000  1
  H  H434  1  0.95420000  0.85980000  0.66450000  1
  H  H435  1  0.81400000  0.14020000  0.16450000  1
  H  H436  1  0.31160000  0.13060000  0.20760000  1
  H  H437  1  0.44220000  0.86940000  0.70760000  1
  H  H438  1  0.97740000  0.79040000  0.32130000  1
  H  H439  1  0.76780000  0.20960000  0.82130000  1
  H  H440  1  0.95740000  0.82960000  0.92770000  1
  H  H441  1  0.78700000  0.17040000  0.42770000  1
  H  H442  1  0.17510000  0.39220000  0.30590000  1
  H  H443  1  0.56730000  0.60780000  0.80590000  1
  H  H444  1  0.07050000  0.58720000  0.43140000  1
  H  H445  1  0.65770000  0.41280000  0.93140000  1
  H  H446  1  0.98830000  0.74960000  0.81290000  1
  H  H447  1  0.73790000  0.25040000  0.31290000  1
  H  H448  1  0.15440000  0.41260000  0.98370000  1
  H  H449  1  0.56700000  0.58740000  0.48370000  1
  H  H450  1  0.06560000  0.58820000  0.95070000  1
  H  H451  1  0.65380000  0.41180000  0.45070000  1
  H  H452  1  0.91180000  0.89000000  0.96790000  1
  H  H453  1  0.80180000  0.11000000  0.46790000  1
  H  H454  1  0.94080000  0.80040000  0.17220000  1
  H  H455  1  0.74120000  0.19960000  0.67220000  1
  H  H456  1  0.00050000  0.67320000  0.66060000  1
  H  H457  1  0.67370000  0.32680000  0.16060000  1
  H  H458  1  0.23121667  0.20420000  0.52220000  1
  H  H459  1  0.43541667  0.79580000  0.02220000  1
  H  H460  1  0.92050000  0.81620000  0.49710000  1
  H  H461  1  0.73670000  0.18380000  0.99710000  1
  H  H462  1  0.96930000  0.71420000  0.95800000  1
  H  H463  1  0.68350000  0.28580000  0.45800000  1
  H  H464  1  0.00140000  0.64620000  0.86900000  1
  H  H465  1  0.64760000  0.35380000  0.36900000  1
  H  H466  1  0.19840000  0.24820000  0.32380000  1
  H  H467  1  0.44660000  0.75180000  0.82380000  1
  H  H468  1  0.28560000  0.07040000  0.61900000  1
  H  H469  1  0.35600000  0.92960000  0.11900000  1
  H  H470  1  0.92600000  0.78460000  0.78360000  1
  H  H471  1  0.71060000  0.21540000  0.28360000  1
  H  H472  1  0.01930000  0.59500000  0.34020000  1
  H  H473  1  0.61430000  0.40500000  0.84020000  1
  H  H474  1  0.04980000  0.53140000  0.98630000  1
  H  H475  1  0.58120000  0.46860000  0.48630000  1
  H  H476  1  0.21270000  0.20080000  0.05020000  1
  H  H477  1  0.41350000  0.79920000  0.55020000  1
  H  H478  1  0.26550000  0.08200000  0.42490000  1
  H  H479  1  0.34750000  0.91800000  0.92490000  1
  H  H480  1  0.82400000  0.94880000  0.58710000  1
  H  H481  1  0.77280000  0.05120000  0.08710000  1
  H  H482  1  0.16620000  0.26220000  0.20850000  1
  H  H483  1  0.42840000  0.73780000  0.70850000  1
  H  H484  1  0.28240000  0.02660000  0.01540000  1
  H  H485  1  0.30900000  0.97340000  0.51540000  1
  H  H486  1  0.19470000  0.19680000  0.86560000  1
  H  H487  1  0.39150000  0.80320000  0.36560000  1
  H  H488  1  0.21170000  0.14760000  0.55470000  1
  H  H489  1  0.35930000  0.85240000  0.05470000  1
  H  H490  1  0.24390000  0.07820000  0.79460000  1
  H  H491  1  0.32210000  0.92180000  0.29460000  1
  H  H492  1  0.88930000  0.78480000  0.68980000  1
  H  H493  1  0.67410000  0.21520000  0.18980000  1
  H  H494  1  0.82480000  0.91240000  0.81040000  1
  H  H495  1  0.73720000  0.08760000  0.31040000  1
  H  H496  1  0.84170000  0.87520000  0.06490000  1
  H  H497  1  0.71690000  0.12480000  0.56490000  1
  H  H498  1  0.78500000  0.98540000  0.25140000  1
  H  H499  1  0.77040000  0.01460000  0.75140000  1
  H  H500  1  0.20510000  0.14180000  0.17560000  1
  H  H501  1  0.34690000  0.85820000  0.67560000  1
  H  H502  1  0.91010000  0.72440000  0.55530000  1
  H  H503  1  0.63450000  0.27560000  0.05530000  1
  H  H504  1  0.98470000  0.57060000  0.70600000  1
  H  H505  1  0.55530000  0.42940000  0.20600000  1
  H  H506  1  0.89960000  0.73200000  0.36020000  1
  H  H507  1  0.63160000  0.26800000  0.86020000  1
  H  H508  1  0.13360000  0.26020000  0.78910000  1
  H  H509  1  0.39380000  0.73980000  0.28910000  1
  H  H510  1  0.02720000  0.47140000  0.75960000  1
  H  H511  1  0.49860000  0.52860000  0.25960000  1
  H  H512  1  0.04510000  0.43520000  0.09160000  1
  H  H513  1  0.48030000  0.56480000  0.59160000  1
  H  H514  1  0.21150000  0.09640000  0.02300000  1
  H  H515  1  0.30790000  0.90360000  0.52300000  1
  H  H516  1  0.93650000  0.64120000  0.02800000  1
  H  H517  1  0.57770000  0.35880000  0.52800000  1
  H  H518  1  0.06350000  0.35880000  0.97200000  1
  H  H519  1  0.42230000  0.64120000  0.47200000  1
  H  H520  1  0.78850000  0.90360000  0.97700000  1
  H  H521  1  0.69210000  0.09640000  0.47700000  1
  H  H522  1  0.95490000  0.56480000  0.90840000  1
  H  H523  1  0.51970000  0.43520000  0.40840000  1
  H  H524  1  0.97280000  0.52860000  0.24040000  1
  H  H525  1  0.50140000  0.47140000  0.74040000  1
  H  H526  1  0.86640000  0.73980000  0.21090000  1
  H  H527  1  0.60620000  0.26020000  0.71090000  1
  H  H528  1  0.10040000  0.26800000  0.63980000  1
  H  H529  1  0.36840000  0.73200000  0.13980000  1
  H  H530  1  0.01530000  0.42940000  0.29400000  1
  H  H531  1  0.44470000  0.57060000  0.79400000  1
  H  H532  1  0.08990000  0.27560000  0.44470000  1
  H  H533  1  0.36550000  0.72440000  0.94470000  1
  H  H534  1  0.79490000  0.85820000  0.82440000  1
  H  H535  1  0.65310000  0.14180000  0.32440000  1
  H  H536  1  0.21500000  0.01460000  0.74860000  1
  H  H537  1  0.22960000  0.98540000  0.24860000  1
  H  H538  1  0.15830000  0.12480000  0.93510000  1
  H  H539  1  0.28310000  0.87520000  0.43510000  1
  H  H540  1  0.17520000  0.08760000  0.18960000  1
  H  H541  1  0.26280000  0.91240000  0.68960000  1
  H  H542  1  0.11070000  0.21520000  0.31020000  1
  H  H543  1  0.32590000  0.78480000  0.81020000  1
  H  H544  1  0.75610000  0.92180000  0.20540000  1
  H  H545  1  0.67790000  0.07820000  0.70540000  1
  H  H546  1  0.78830000  0.85240000  0.44530000  1
  H  H547  1  0.64070000  0.14760000  0.94530000  1
  H  H548  1  0.80530000  0.80320000  0.13440000  1
  H  H549  1  0.60850000  0.19680000  0.63440000  1
  H  H550  1  0.71760000  0.97340000  0.98460000  1
  H  H551  1  0.69100000  0.02660000  0.48460000  1
  H  H552  1  0.83380000  0.73780000  0.79150000  1
  H  H553  1  0.57160000  0.26220000  0.29150000  1
  H  H554  1  0.17600000  0.05120000  0.41290000  1
  H  H555  1  0.22720000  0.94880000  0.91290000  1
  H  H556  1  0.73450000  0.91800000  0.57510000  1
  H  H557  1  0.65250000  0.08200000  0.07510000  1
  H  H558  1  0.78730000  0.79920000  0.94980000  1
  H  H559  1  0.58650000  0.20080000  0.44980000  1
  H  H560  1  0.95020000  0.46860000  0.01370000  1
  H  H561  1  0.41880000  0.53140000  0.51370000  1
  H  H562  1  0.98070000  0.40500000  0.65980000  1
  H  H563  1  0.38570000  0.59500000  0.15980000  1
  H  H564  1  0.07400000  0.21540000  0.21640000  1
  H  H565  1  0.28940000  0.78460000  0.71640000  1
  H  H566  1  0.71440000  0.92960000  0.38100000  1
  H  H567  1  0.64400000  0.07040000  0.88100000  1
  H  H568  1  0.80160000  0.75180000  0.67620000  1
  H  H569  1  0.55340000  0.24820000  0.17620000  1
  H  H570  1  0.99860000  0.35380000  0.13100000  1
  H  H571  1  0.35240000  0.64620000  0.63100000  1
  H  H572  1  0.03070000  0.28580000  0.04200000  1
  H  H573  1  0.31650000  0.71420000  0.54200000  1
  H  H574  1  0.07950000  0.18380000  0.50290000  1
  H  H575  1  0.26330000  0.81620000  0.00290000  1
  H  H576  1  0.76878333  0.79580000  0.47780000  1
  H  H577  1  0.56458333  0.20420000  0.97780000  1
  H  H578  1  0.99950000  0.32680000  0.33940000  1
  H  H579  1  0.32630000  0.67320000  0.83940000  1
  H  H580  1  0.05920000  0.19960000  0.82780000  1
  H  H581  1  0.25880000  0.80040000  0.32780000  1
  H  H582  1  0.08820000  0.11000000  0.03210000  1
  H  H583  1  0.19820000  0.89000000  0.53210000  1
  H  H584  1  0.93440000  0.41180000  0.04930000  1
  H  H585  1  0.34620000  0.58820000  0.54930000  1
  H  H586  1  0.84560000  0.58740000  0.01630000  1
  H  H587  1  0.43300000  0.41260000  0.51630000  1
  H  H588  1  0.01170000  0.25040000  0.18710000  1
  H  H589  1  0.26210000  0.74960000  0.68710000  1
  H  H590  1  0.92950000  0.41280000  0.56860000  1
  H  H591  1  0.34230000  0.58720000  0.06860000  1
  H  H592  1  0.82490000  0.60780000  0.69410000  1
  H  H593  1  0.43270000  0.39220000  0.19410000  1
  H  H594  1  0.04260000  0.17040000  0.07230000  1
  H  H595  1  0.21300000  0.82960000  0.57230000  1
  H  H596  1  0.02260000  0.20960000  0.67870000  1
  H  H597  1  0.23220000  0.79040000  0.17870000  1
  H  H598  1  0.68840000  0.86940000  0.79240000  1
  H  H599  1  0.55780000  0.13060000  0.29240000  1
  H  H600  1  0.04580000  0.14020000  0.33550000  1
  H  H601  1  0.18600000  0.85980000  0.83550000  1
  H  H602  1  0.78600000  0.65700000  0.83070000  1
  H  H603  1  0.44300000  0.34300000  0.33070000  1
  H  H604  1  0.07170000  0.07780000  0.37270000  1
  H  H605  1  0.14950000  0.92220000  0.87270000  1
  H  H606  1  0.93850000  0.33900000  0.89040000  1
  H  H607  1  0.27750000  0.66100000  0.39040000  1
  H  H608  1  0.91950000  0.37340000  0.74700000  1
  H  H609  1  0.29290000  0.62660000  0.24700000  1
  H  H610  1  0.72200000  0.75400000  0.92120000  1
  H  H611  1  0.47600000  0.24600000  0.42120000  1
  H  H612  1  0.94320000  0.30620000  0.32950000  1
  H  H613  1  0.24940000  0.69380000  0.82950000  1
  H  H614  1  0.61290000  0.96200000  0.34320000  1
  H  H615  1  0.57490000  0.03800000  0.84320000  1
  H  H616  1  0.59920000  0.98720000  0.97140000  1
  H  H617  1  0.58640000  0.01280000  0.47140000  1
  H  H618  1  0.01040000  0.14500000  0.58810000  1
  H  H619  1  0.15540000  0.85500000  0.08810000  1
  H  H620  1  0.97030000  0.22400000  0.91830000  1
  H  H621  1  0.19430000  0.77600000  0.41830000  1
  H  H622  1  0.91740000  0.32080000  0.62550000  1
  H  H623  1  0.23820000  0.67920000  0.12550000  1
  H  H624  1  0.81090000  0.51380000  0.34900000  1
  H  H625  1  0.32470000  0.48620000  0.84900000  1
  H  H626  1  0.59810000  0.93200000  0.74340000  1
  H  H627  1  0.53010000  0.06800000  0.24340000  1
  H  H628  1  0.91620000  0.28860000  0.43680000  1
  H  H629  1  0.20480000  0.71140000  0.93680000  1
  H  H630  1  0.82370000  0.47140000  0.21200000  1
  H  H631  1  0.29510000  0.52860000  0.71200000  1
  H  H632  1  0.66680000  0.77380000  0.46650000  1
  H  H633  1  0.97900000  0.14940000  0.81620000  1
  H  H634  1  0.12840000  0.85060000  0.31620000  1
  H  H635  1  0.44060000  0.22620000  0.96650000  1
  H  H636  1  0.86480000  0.37360000  0.26660000  1
  H  H637  1  0.23840000  0.62640000  0.76660000  1
  H  H638  1  0.76330000  0.57480000  0.78050000  1
  H  H639  1  0.33810000  0.42520000  0.28050000  1
  H  H640  1  0.71630000  0.66820000  0.05700000  1
  H  H641  1  0.38450000  0.33180000  0.55700000  1
  H  H642  1  0.94900000  0.19540000  0.63410000  1
  H  H643  1  0.14440000  0.80460000  0.13410000  1
  H  H644  1  0.96660000  0.15160000  0.76050000  1
  H  H645  1  0.11820000  0.84840000  0.26050000  1
  H  H646  1  0.95900000  0.16480000  0.45880000  1
  H  H647  1  0.12380000  0.83520000  0.95880000  1
  H  H648  1  0.83530000  0.40380000  0.46530000  1
  H  H649  1  0.23910000  0.59620000  0.96530000  1
  H  H650  1  0.62830000  0.80700000  0.07010000  1
  H  H651  1  0.43530000  0.19300000  0.57010000  1
  H  H652  1  0.80490000  0.43420000  0.11200000  1
  H  H653  1  0.23910000  0.56580000  0.61200000  1
  H  H654  1  0.81210000  0.40860000  0.83550000  1
  H  H655  1  0.22070000  0.59140000  0.33550000  1
  H  H656  1  0.94260000  0.14040000  0.98780000  1
  H  H657  1  0.08300000  0.85960000  0.48780000  1
  H  H658  1  0.53430000  0.94260000  0.94190000  1
  H  H659  1  0.47690000  0.05740000  0.44190000  1
  H  H660  1  0.76060000  0.48420000  0.65230000  1
  H  H661  1  0.24480000  0.51580000  0.15230000  1
  N  N662  1  0.24947000  0.49070000  0.04783000  1
  N  N663  1  0.74017000  0.50930000  0.54783000  1
  N  N664  1  0.07794000  0.82592000  0.50960000  1
  N  N665  1  0.90386000  0.17408000  0.00960000  1
  N  N666  1  0.20423000  0.54794000  0.17455000  1
  N  N667  1  0.75217000  0.45206000  0.67455000  1
  N  N668  1  0.34012000  0.25266000  0.41139000  1
  N  N669  1  0.59278000  0.74734000  0.91139000  1
  N  N670  1  0.24429000  0.42954000  0.07218000  1
  N  N671  1  0.67383000  0.57046000  0.57218000  1
  N  N672  1  0.37233000  0.15510000  0.82777000  1
  N  N673  1  0.52743000  0.84490000  0.32777000  1
  N  N674  1  0.29929000  0.29648000  0.66909000  1
  N  N675  1  0.59577000  0.70352000  0.16909000  1
  N  N676  1  0.42704000  0.03912000  0.83808000  1
  N  N677  1  0.46616000  0.96088000  0.33808000  1
  N  N678  1  0.36715000  0.14428000  0.39313000  1
  N  N679  1  0.51143000  0.85572000  0.89313000  1
  N  N680  1  0.01280000  0.83860000  0.21880000  1
  N  N681  1  0.85140000  0.16140000  0.71880000  1
  N  N682  1  0.01709000  0.81262000  0.39890000  1
  N  N683  1  0.82971000  0.18738000  0.89890000  1
  N  N684  1  0.34455000  0.12798000  0.79842000  1
  N  N685  1  0.47253000  0.87202000  0.29842000  1
  N  N686  1  0.21626000  0.38110000  0.79998000  1
  N  N687  1  0.59736000  0.61890000  0.29998000  1
  N  N688  1  0.27722000  0.25528000  0.39774000  1
  N  N689  1  0.53250000  0.74472000  0.89774000  1
  N  N690  1  0.22404000  0.32396000  0.83571000  1
  N  N691  1  0.54800000  0.67604000  0.33571000  1
  N  N692  1  0.25502000  0.26132000  0.69775000  1
  N  N693  1  0.51634000  0.73868000  0.19775000  1
  N  N694  1  0.12311000  0.51662000  0.08895000  1
  N  N695  1  0.63973000  0.48338000  0.58895000  1
  N  N696  1  0.03547000  0.66566000  0.67660000  1
  N  N697  1  0.70113000  0.33434000  0.17660000  1
  N  N698  1  0.92369000  0.88582000  0.64440000  1
  N  N699  1  0.80951000  0.11418000  0.14440000  1
  N  N700  1  0.18427000  0.34918000  0.65064000  1
  N  N701  1  0.53345000  0.65082000  0.15064000  1
  N  N702  1  0.08201000  0.54498000  0.96150000  1
  N  N703  1  0.62699000  0.45502000  0.46150000  1
  N  N704  1  0.92878000  0.84624000  0.96110000  1
  N  N705  1  0.77502000  0.15376000  0.46110000  1
  N  N706  1  0.23968000  0.17024000  0.54620000  1
  N  N707  1  0.40992000  0.82976000  0.04620000  1
  N  N708  1  0.94860000  0.75160000  0.80510000  1
  N  N709  1  0.70020000  0.24840000  0.30510000  1
  N  N710  1  0.05352000  0.52822000  0.54165000  1
  N  N711  1  0.58174000  0.47178000  0.04165000  1
  N  N712  1  0.25937000  0.07066000  0.02370000  1
  N  N713  1  0.33003000  0.92934000  0.52370000  1
  N  N714  1  0.09649000  0.39520000  0.85084000  1
  N  N715  1  0.49169000  0.60480000  0.35084000  1
  N  N716  1  0.07459000  0.40876000  0.41614000  1
  N  N717  1  0.48335000  0.59124000  0.91614000  1
  N  N718  1  0.03060000  0.49146000  0.58871000  1
  N  N719  1  0.52206000  0.50854000  0.08871000  1
  N  N720  1  0.20711000  0.10278000  0.19170000  1
  N  N721  1  0.30989000  0.89722000  0.69170000  1
  N  N722  1  0.79289000  0.89722000  0.80830000  1
  N  N723  1  0.69011000  0.10278000  0.30830000  1
  N  N724  1  0.96940000  0.50854000  0.41129000  1
  N  N725  1  0.47794000  0.49146000  0.91129000  1
  N  N726  1  0.92541000  0.59124000  0.58386000  1
  N  N727  1  0.51665000  0.40876000  0.08386000  1
  N  N728  1  0.90351000  0.60480000  0.14916000  1
  N  N729  1  0.50831000  0.39520000  0.64916000  1
  N  N730  1  0.74063000  0.92934000  0.97630000  1
  N  N731  1  0.66997000  0.07066000  0.47630000  1
  N  N732  1  0.94648000  0.47178000  0.45835000  1
  N  N733  1  0.41826000  0.52822000  0.95835000  1
  N  N734  1  0.05140000  0.24840000  0.19490000  1
  N  N735  1  0.29980000  0.75160000  0.69490000  1
  N  N736  1  0.76032000  0.82976000  0.45380000  1
  N  N737  1  0.59008000  0.17024000  0.95380000  1
  N  N738  1  0.07122000  0.15376000  0.03890000  1
  N  N739  1  0.22498000  0.84624000  0.53890000  1
  N  N740  1  0.91799000  0.45502000  0.03850000  1
  N  N741  1  0.37301000  0.54498000  0.53850000  1
  N  N742  1  0.81573000  0.65082000  0.34936000  1
  N  N743  1  0.46655000  0.34918000  0.84936000  1
  N  N744  1  0.07631000  0.11418000  0.35560000  1
  N  N745  1  0.19049000  0.88582000  0.85560000  1
  N  N746  1  0.96453000  0.33434000  0.32340000  1
  N  N747  1  0.29887000  0.66566000  0.82340000  1
  N  N748  1  0.87689000  0.48338000  0.91105000  1
  N  N749  1  0.36027000  0.51662000  0.41105000  1
  N  N750  1  0.74498000  0.73868000  0.30225000  1
  N  N751  1  0.48366000  0.26132000  0.80225000  1
  N  N752  1  0.77596000  0.67604000  0.16429000  1
  N  N753  1  0.45200000  0.32396000  0.66429000  1
  N  N754  1  0.72278000  0.74472000  0.60226000  1
  N  N755  1  0.46750000  0.25528000  0.10226000  1
  N  N756  1  0.78374000  0.61890000  0.20002000  1
  N  N757  1  0.40264000  0.38110000  0.70002000  1
  N  N758  1  0.65545000  0.87202000  0.20158000  1
  N  N759  1  0.52747000  0.12798000  0.70158000  1
  N  N760  1  0.98291000  0.18738000  0.60110000  1
  N  N761  1  0.17029000  0.81262000  0.10110000  1
  N  N762  1  0.98720000  0.16140000  0.78120000  1
  N  N763  1  0.14860000  0.83860000  0.28120000  1
  N  N764  1  0.63285000  0.85572000  0.60687000  1
  N  N765  1  0.48857000  0.14428000  0.10687000  1
  N  N766  1  0.57296000  0.96088000  0.16192000  1
  N  N767  1  0.53384000  0.03912000  0.66192000  1
  N  N768  1  0.70071000  0.70352000  0.33091000  1
  N  N769  1  0.40423000  0.29648000  0.83091000  1
  N  N770  1  0.62767000  0.84490000  0.17223000  1
  N  N771  1  0.47257000  0.15510000  0.67223000  1
  N  N772  1  0.75571000  0.57046000  0.92782000  1
  N  N773  1  0.32617000  0.42954000  0.42782000  1
  N  N774  1  0.65988000  0.74734000  0.58861000  1
  N  N775  1  0.40722000  0.25266000  0.08861000  1
  N  N776  1  0.79577000  0.45206000  0.82545000  1
  N  N777  1  0.24783000  0.54794000  0.32545000  1
  N  N778  1  0.92206000  0.17408000  0.49040000  1
  N  N779  1  0.09614000  0.82592000  0.99040000  1
  N  N780  1  0.75053000  0.50930000  0.95217000  1
  N  N781  1  0.25983000  0.49070000  0.45217000  1
