# generated using pymatgen
data_Mn3Fe4Sb6H12(C6O11)4
_symmetry_space_group_name_H-M   'P 1'
_cell_length_a   20.03760000
_cell_length_b   20.87400000
_cell_length_c   20.98070000
_cell_angle_alpha   90.00000000
_cell_angle_beta   90.00000000
_cell_angle_gamma   90.00000000
_symmetry_Int_Tables_number   1
_chemical_formula_structural   Mn3Fe4Sb6H12(C6O11)4
_chemical_formula_sum   'Mn12 Fe16 Sb24 H48 C96 O176'
_cell_volume   8775.48959856
_cell_formula_units_Z   4
loop_
 _symmetry_equiv_pos_site_id
 _symmetry_equiv_pos_as_xyz
  1  'x, y, z'
loop_
 _atom_site_type_symbol
 _atom_site_label
 _atom_site_symmetry_multiplicity
 _atom_site_fract_x
 _atom_site_fract_y
 _atom_site_fract_z
 _atom_site_occupancy
  Mn  Mn0  1  0.05363000  0.26478000  0.19489000  1
  Mn  Mn1  1  0.12383000  0.53112000  0.28602000  1
  Mn  Mn2  1  0.20493000  0.44681000  0.02131000  1
  Mn  Mn3  1  0.29507000  0.55319000  0.52131000  1
  Mn  Mn4  1  0.37617000  0.46888000  0.78602000  1
  Mn  Mn5  1  0.44637000  0.73522000  0.69489000  1
  Mn  Mn6  1  0.55363000  0.23522000  0.80511000  1
  Mn  Mn7  1  0.62383000  0.96888000  0.71398000  1
  Mn  Mn8  1  0.70493000  0.05319000  0.97869000  1
  Mn  Mn9  1  0.79507000  0.94681000  0.47869000  1
  Mn  Mn10  1  0.87617000  0.03112000  0.21398000  1
  Mn  Mn11  1  0.94637000  0.76478000  0.30511000  1
  Fe  Fe12  1  0.05902000  0.38593000  0.29641000  1
  Fe  Fe13  1  0.12762000  0.41391000  0.16673000  1
  Fe  Fe14  1  0.13066000  0.30999000  0.06163000  1
  Fe  Fe15  1  0.19278000  0.54639000  0.14318000  1
  Fe  Fe16  1  0.30722000  0.45361000  0.64318000  1
  Fe  Fe17  1  0.36934000  0.69001000  0.56163000  1
  Fe  Fe18  1  0.37238000  0.58609000  0.66666667  1
  Fe  Fe19  1  0.44098000  0.61407000  0.79641000  1
  Fe  Fe20  1  0.55902000  0.11407000  0.70359000  1
  Fe  Fe21  1  0.62762000  0.08609000  0.83327000  1
  Fe  Fe22  1  0.63066000  0.19001000  0.93837000  1
  Fe  Fe23  1  0.69278000  0.95361000  0.85682000  1
  Fe  Fe24  1  0.80722000  0.04639000  0.35682000  1
  Fe  Fe25  1  0.86934000  0.80999000  0.43837000  1
  Fe  Fe26  1  0.87238000  0.91391000  0.33327000  1
  Fe  Fe27  1  0.94098000  0.88593000  0.20359000  1
  Sb  Sb28  1  0.02845000  0.99670000  0.29759000  1
  Sb  Sb29  1  0.02875000  0.87179000  0.41304000  1
  Sb  Sb30  1  0.04934000  0.52147000  0.05086000  1
  Sb  Sb31  1  0.20604000  0.29830000  0.27388000  1
  Sb  Sb32  1  0.21244000  0.66031000  0.62702000  1
  Sb  Sb33  1  0.22003000  0.54790000  0.75387000  1
  Sb  Sb34  1  0.27997000  0.45210000  0.25387000  1
  Sb  Sb35  1  0.28756000  0.33969000  0.12702000  1
  Sb  Sb36  1  0.29396000  0.70170000  0.77388000  1
  Sb  Sb37  1  0.45066000  0.47853000  0.55086000  1
  Sb  Sb38  1  0.47125000  0.12821000  0.91304000  1
  Sb  Sb39  1  0.47155000  0.00330000  0.79759000  1
  Sb  Sb40  1  0.52845000  0.50330000  0.70241000  1
  Sb  Sb41  1  0.52875000  0.62821000  0.58696000  1
  Sb  Sb42  1  0.54934000  0.97853000  0.94914000  1
  Sb  Sb43  1  0.70604000  0.20170000  0.72612000  1
  Sb  Sb44  1  0.71244000  0.83969000  0.37298000  1
  Sb  Sb45  1  0.72003000  0.95210000  0.24613000  1
  Sb  Sb46  1  0.77997000  0.04790000  0.74613000  1
  Sb  Sb47  1  0.78756000  0.16031000  0.87298000  1
  Sb  Sb48  1  0.79396000  0.79830000  0.22612000  1
  Sb  Sb49  1  0.95066000  0.02147000  0.44914000  1
  Sb  Sb50  1  0.97125000  0.37179000  0.08696000  1
  Sb  Sb51  1  0.97155000  0.49670000  0.20241000  1
  H  H52  1  0.00360000  0.66840000  0.17640000  1
  H  H53  1  0.02270000  0.42650000  0.90690000  1
  H  H54  1  0.08630000  0.78590000  0.20790000  1
  H  H55  1  0.09520000  0.53120000  0.60240000  1
  H  H56  1  0.11280000  0.68010000  0.21770000  1
  H  H57  1  0.12280000  0.36480000  0.90000000  1
  H  H58  1  0.13300000  0.45960000  0.43440000  1
  H  H59  1  0.14190000  0.14750000  0.11450000  1
  H  H60  1  0.14890000  0.84030000  0.28770000  1
  H  H61  1  0.15770000  0.45140000  0.54780000  1
  H  H62  1  0.23720000  0.15350000  0.18070000  1
  H  H63  1  0.24490000  0.42260000  0.42210000  1
  H  H64  1  0.25510000  0.57740000  0.92210000  1
  H  H65  1  0.26280000  0.84650000  0.68070000  1
  H  H66  1  0.34230000  0.54860000  0.04780000  1
  H  H67  1  0.35110000  0.15970000  0.78770000  1
  H  H68  1  0.35810000  0.85250000  0.61450000  1
  H  H69  1  0.36700000  0.54040000  0.93440000  1
  H  H70  1  0.37720000  0.63520000  0.40000000  1
  H  H71  1  0.38720000  0.31990000  0.71770000  1
  H  H72  1  0.40480000  0.46880000  0.10240000  1
  H  H73  1  0.41370000  0.21410000  0.70790000  1
  H  H74  1  0.47730000  0.57350000  0.40690000  1
  H  H75  1  0.49640000  0.33160000  0.67640000  1
  H  H76  1  0.50360000  0.83160000  0.82360000  1
  H  H77  1  0.52270000  0.07350000  0.09310000  1
  H  H78  1  0.58630000  0.71410000  0.79210000  1
  H  H79  1  0.59520000  0.96880000  0.39760000  1
  H  H80  1  0.61280000  0.81990000  0.78230000  1
  H  H81  1  0.62280000  0.13520000  0.10000000  1
  H  H82  1  0.63300000  0.04040000  0.56560000  1
  H  H83  1  0.64190000  0.35250000  0.88550000  1
  H  H84  1  0.64890000  0.65970000  0.71230000  1
  H  H85  1  0.65770000  0.04860000  0.45220000  1
  H  H86  1  0.73720000  0.34650000  0.81930000  1
  H  H87  1  0.74490000  0.07740000  0.57790000  1
  H  H88  1  0.75510000  0.92260000  0.07790000  1
  H  H89  1  0.76280000  0.65350000  0.31930000  1
  H  H90  1  0.84230000  0.95140000  0.95220000  1
  H  H91  1  0.85110000  0.34030000  0.21230000  1
  H  H92  1  0.85810000  0.64750000  0.38550000  1
  H  H93  1  0.86700000  0.95960000  0.06560000  1
  H  H94  1  0.87720000  0.86480000  0.60000000  1
  H  H95  1  0.88720000  0.18010000  0.28230000  1
  H  H96  1  0.90480000  0.03120000  0.89760000  1
  H  H97  1  0.91370000  0.28590000  0.29210000  1
  H  H98  1  0.97730000  0.92650000  0.59310000  1
  H  H99  1  0.99640000  0.16840000  0.32360000  1
  C  C100  1  0.00770000  0.62410000  0.26580000  1
  C  C101  1  0.02750000  0.63180000  0.19460000  1
  C  C102  1  0.05400000  0.31190000  0.94800000  1
  C  C103  1  0.05780000  0.43050000  0.93920000  1
  C  C104  1  0.06820000  0.82430000  0.22870000  1
  C  C105  1  0.08300000  0.88150000  0.18760000  1
  C  C106  1  0.09330000  0.76880000  0.33200000  1
  C  C107  1  0.09890000  0.36880000  0.94060000  1
  C  C108  1  0.10120000  0.83180000  0.29380000  1
  C  C109  1  0.10140000  0.64390000  0.19010000  1
  C  C110  1  0.10490000  0.48710000  0.92090000  1
  C  C111  1  0.12050000  0.66060000  0.12110000  1
  C  C112  1  0.12880000  0.36430000  0.41310000  1
  C  C113  1  0.14230000  0.53810000  0.59160000  1
  C  C114  1  0.14540000  0.43300000  0.39770000  1
  C  C115  1  0.14650000  0.57460000  0.52920000  1
  C  C116  1  0.15250000  0.16740000  0.23610000  1
  C  C117  1  0.16470000  0.18860000  0.12050000  1
  C  C118  1  0.16600000  0.43260000  0.64320000  1
  C  C119  1  0.17670000  0.47370000  0.58470000  1
  C  C120  1  0.20210000  0.18610000  0.18330000  1
  C  C121  1  0.21070000  0.19870000  0.06510000  1
  C  C122  1  0.22020000  0.44090000  0.38610000  1
  C  C123  1  0.23720000  0.51250000  0.38000000  1
  C  C124  1  0.26280000  0.48750000  0.88000000  1
  C  C125  1  0.27980000  0.55910000  0.88610000  1
  C  C126  1  0.28930000  0.80130000  0.56510000  1
  C  C127  1  0.29790000  0.81390000  0.68330000  1
  C  C128  1  0.32330000  0.52630000  0.08470000  1
  C  C129  1  0.33400000  0.56740000  0.14320000  1
  C  C130  1  0.33530000  0.81140000  0.62050000  1
  C  C131  1  0.34750000  0.83260000  0.73610000  1
  C  C132  1  0.35350000  0.42540000  0.02920000  1
  C  C133  1  0.35460000  0.56700000  0.89770000  1
  C  C134  1  0.35770000  0.46190000  0.09160000  1
  C  C135  1  0.37120000  0.63570000  0.91310000  1
  C  C136  1  0.37950000  0.33940000  0.62110000  1
  C  C137  1  0.39510000  0.51290000  0.42090000  1
  C  C138  1  0.39860000  0.35610000  0.69010000  1
  C  C139  1  0.39880000  0.16820000  0.79380000  1
  C  C140  1  0.40110000  0.63120000  0.44060000  1
  C  C141  1  0.40670000  0.23120000  0.83200000  1
  C  C142  1  0.41700000  0.11850000  0.68760000  1
  C  C143  1  0.43180000  0.17570000  0.72870000  1
  C  C144  1  0.44220000  0.56950000  0.43920000  1
  C  C145  1  0.44600000  0.68810000  0.44800000  1
  C  C146  1  0.47250000  0.36820000  0.69460000  1
  C  C147  1  0.49230000  0.37590000  0.76580000  1
  C  C148  1  0.50770000  0.87590000  0.73420000  1
  C  C149  1  0.52750000  0.86820000  0.80540000  1
  C  C150  1  0.55400000  0.18810000  0.05200000  1
  C  C151  1  0.55780000  0.06950000  0.06080000  1
  C  C152  1  0.56820000  0.67570000  0.77130000  1
  C  C153  1  0.58300000  0.61850000  0.81240000  1
  C  C154  1  0.59330000  0.73120000  0.66800000  1
  C  C155  1  0.59890000  0.13120000  0.05940000  1
  C  C156  1  0.60120000  0.66820000  0.70620000  1
  C  C157  1  0.60140000  0.85610000  0.80990000  1
  C  C158  1  0.60490000  0.01290000  0.07910000  1
  C  C159  1  0.62050000  0.83940000  0.87890000  1
  C  C160  1  0.62880000  0.13570000  0.58690000  1
  C  C161  1  0.64230000  0.96190000  0.40840000  1
  C  C162  1  0.64540000  0.06700000  0.60230000  1
  C  C163  1  0.64650000  0.92540000  0.47080000  1
  C  C164  1  0.65250000  0.33260000  0.76390000  1
  C  C165  1  0.66470000  0.31140000  0.87950000  1
  C  C166  1  0.66600000  0.06740000  0.35680000  1
  C  C167  1  0.67670000  0.02630000  0.41530000  1
  C  C168  1  0.70210000  0.31390000  0.81670000  1
  C  C169  1  0.71070000  0.30130000  0.93490000  1
  C  C170  1  0.72020000  0.05910000  0.61390000  1
  C  C171  1  0.73720000  0.98750000  0.62000000  1
  C  C172  1  0.76280000  0.01250000  0.12000000  1
  C  C173  1  0.77980000  0.94090000  0.11390000  1
  C  C174  1  0.78930000  0.69870000  0.43490000  1
  C  C175  1  0.79790000  0.68610000  0.31670000  1
  C  C176  1  0.82330000  0.97370000  0.91530000  1
  C  C177  1  0.83400000  0.93260000  0.85680000  1
  C  C178  1  0.83530000  0.68860000  0.37950000  1
  C  C179  1  0.84750000  0.66740000  0.26390000  1
  C  C180  1  0.85350000  0.07460000  0.97080000  1
  C  C181  1  0.85460000  0.93300000  0.10230000  1
  C  C182  1  0.85770000  0.03810000  0.90840000  1
  C  C183  1  0.87120000  0.86430000  0.08690000  1
  C  C184  1  0.87950000  0.16060000  0.37890000  1
  C  C185  1  0.89510000  0.98710000  0.57910000  1
  C  C186  1  0.89860000  0.14390000  0.30990000  1
  C  C187  1  0.89880000  0.33180000  0.20620000  1
  C  C188  1  0.90110000  0.86880000  0.55940000  1
  C  C189  1  0.90670000  0.26880000  0.16800000  1
  C  C190  1  0.91700000  0.38150000  0.31240000  1
  C  C191  1  0.93180000  0.32430000  0.27130000  1
  C  C192  1  0.94220000  0.93050000  0.56080000  1
  C  C193  1  0.94600000  0.81190000  0.55200000  1
  C  C194  1  0.97250000  0.13180000  0.30540000  1
  C  C195  1  0.99230000  0.12410000  0.23420000  1
  O  O196  1  0.00240000  0.31623000  0.26340000  1
  O  O197  1  0.00640000  0.16960000  0.20180000  1
  O  O198  1  0.00900000  0.56561000  0.28530000  1
  O  O199  1  0.01100000  0.57515000  0.15910000  1
  O  O200  1  0.01400000  0.96865000  0.39160000  1
  O  O201  1  0.01870000  0.29510000  0.90310000  1
  O  O202  1  0.02860000  0.44160000  0.99840000  1
  O  O203  1  0.03050000  0.91690000  0.17200000  1
  O  O204  1  0.04380000  0.76910000  0.37090000  1
  O  O205  1  0.05680000  0.45290000  0.22431000  1
  O  O206  1  0.05760000  0.28260000  0.00110000  1
  O  O207  1  0.06210000  0.35617000  0.11900000  1
  O  O208  1  0.07270000  0.88310000  0.32650000  1
  O  O209  1  0.09170000  0.33470000  0.37130000  1
  O  O210  1  0.09830000  0.71040000  0.09700000  1
  O  O211  1  0.10700000  0.45320000  0.34400000  1
  O  O212  1  0.10870000  0.56210000  0.48500000  1
  O  O213  1  0.11000000  0.41410000  0.65580000  1
  O  O214  1  0.11620000  0.23720000  0.12090000  1
  O  O215  1  0.11820000  0.49750000  0.86480000  1
  O  O216  1  0.12630000  0.21420000  0.26590000  1
  O  O217  1  0.12650000  0.48588000  0.10014000  1
  O  O218  1  0.12910000  0.34644000  0.23771000  1
  O  O219  1  0.12950000  0.51660000  0.97000000  1
  O  O220  1  0.12980000  0.72390000  0.32120000  1
  O  O221  1  0.13890000  0.89370000  0.17070000  1
  O  O222  1  0.13930000  0.59050000  0.20890000  1
  O  O223  1  0.14030000  0.10950000  0.24480000  1
  O  O224  1  0.14590000  0.37030000  0.99010000  1
  O  O225  1  0.15170000  0.33790000  0.46090000  1
  O  O226  1  0.15800000  0.62160000  0.09250000  1
  O  O227  1  0.17360000  0.57280000  0.64210000  1
  O  O228  1  0.19430000  0.36931000  0.10906000  1
  O  O229  1  0.19440000  0.61670000  0.52660000  1
  O  O230  1  0.19520000  0.47373000  0.20859000  1
  O  O231  1  0.20620000  0.25340000  0.03620000  1
  O  O232  1  0.21990000  0.42060000  0.67580000  1
  O  O233  1  0.23140000  0.24660000  0.19560000  1
  O  O234  1  0.23140000  0.64124000  0.72413000  1
  O  O235  1  0.23550000  0.53380000  0.32280000  1
  O  O236  1  0.23750000  0.40780000  0.32950000  1
  O  O237  1  0.24640000  0.84270000  0.55010000  1
  O  O238  1  0.24720000  0.48320000  0.57360000  1
  O  O239  1  0.24810000  0.54490000  0.42710000  1
  O  O240  1  0.25190000  0.45510000  0.92710000  1
  O  O241  1  0.25280000  0.51680000  0.07360000  1
  O  O242  1  0.25360000  0.15730000  0.05010000  1
  O  O243  1  0.26250000  0.59220000  0.82950000  1
  O  O244  1  0.26450000  0.46620000  0.82280000  1
  O  O245  1  0.26860000  0.35876000  0.22413000  1
  O  O246  1  0.26860000  0.75340000  0.69560000  1
  O  O247  1  0.28010000  0.57940000  0.17580000  1
  O  O248  1  0.29380000  0.74660000  0.53620000  1
  O  O249  1  0.30480000  0.52627000  0.70859000  1
  O  O250  1  0.30560000  0.38330000  0.02660000  1
  O  O251  1  0.30570000  0.63069000  0.60906000  1
  O  O252  1  0.32640000  0.42720000  0.14210000  1
  O  O253  1  0.34200000  0.37840000  0.59250000  1
  O  O254  1  0.34830000  0.66210000  0.96090000  1
  O  O255  1  0.35410000  0.62970000  0.49010000  1
  O  O256  1  0.35970000  0.89050000  0.74480000  1
  O  O257  1  0.36070000  0.40950000  0.70890000  1
  O  O258  1  0.36110000  0.10630000  0.67070000  1
  O  O259  1  0.37020000  0.27610000  0.82120000  1
  O  O260  1  0.37050000  0.48340000  0.47000000  1
  O  O261  1  0.37090000  0.65356000  0.73771000  1
  O  O262  1  0.37350000  0.51412000  0.60014000  1
  O  O263  1  0.37370000  0.78580000  0.76590000  1
  O  O264  1  0.38180000  0.50250000  0.36480000  1
  O  O265  1  0.38380000  0.76280000  0.62090000  1
  O  O266  1  0.39000000  0.58590000  0.15580000  1
  O  O267  1  0.39130000  0.43790000  0.98500000  1
  O  O268  1  0.39300000  0.54680000  0.84400000  1
  O  O269  1  0.40170000  0.28960000  0.59700000  1
  O  O270  1  0.40830000  0.66530000  0.87130000  1
  O  O271  1  0.42730000  0.11690000  0.82650000  1
  O  O272  1  0.43790000  0.64383000  0.61900000  1
  O  O273  1  0.44240000  0.71740000  0.50110000  1
  O  O274  1  0.44320000  0.54710000  0.72431000  1
  O  O275  1  0.45620000  0.23090000  0.87090000  1
  O  O276  1  0.46950000  0.08310000  0.67200000  1
  O  O277  1  0.47140000  0.55840000  0.49840000  1
  O  O278  1  0.48130000  0.70490000  0.40310000  1
  O  O279  1  0.48600000  0.03135000  0.89160000  1
  O  O280  1  0.48900000  0.42485000  0.65910000  1
  O  O281  1  0.49100000  0.43439000  0.78530000  1
  O  O282  1  0.49360000  0.83040000  0.70180000  1
  O  O283  1  0.49760000  0.68377000  0.76340000  1
  O  O284  1  0.50240000  0.18377000  0.73660000  1
  O  O285  1  0.50640000  0.33040000  0.79820000  1
  O  O286  1  0.50900000  0.93439000  0.71470000  1
  O  O287  1  0.51100000  0.92485000  0.84090000  1
  O  O288  1  0.51400000  0.53135000  0.60840000  1
  O  O289  1  0.51870000  0.20490000  0.09690000  1
  O  O290  1  0.52860000  0.05840000  0.00160000  1
  O  O291  1  0.53050000  0.58310000  0.82800000  1
  O  O292  1  0.54380000  0.73090000  0.62910000  1
  O  O293  1  0.55680000  0.04710000  0.77569000  1
  O  O294  1  0.55760000  0.21740000  0.99890000  1
  O  O295  1  0.56210000  0.14383000  0.88100000  1
  O  O296  1  0.57270000  0.61690000  0.67350000  1
  O  O297  1  0.59170000  0.16530000  0.62870000  1
  O  O298  1  0.59830000  0.78960000  0.90300000  1
  O  O299  1  0.60700000  0.04680000  0.65600000  1
  O  O300  1  0.60870000  0.93790000  0.51500000  1
  O  O301  1  0.61000000  0.08590000  0.34420000  1
  O  O302  1  0.61620000  0.26280000  0.87910000  1
  O  O303  1  0.61820000  0.00250000  0.13520000  1
  O  O304  1  0.62630000  0.28580000  0.73410000  1
  O  O305  1  0.62650000  0.01412000  0.89986000  1
  O  O306  1  0.62910000  0.15356000  0.76229000  1
  O  O307  1  0.62950000  0.98340000  0.03000000  1
  O  O308  1  0.62980000  0.77610000  0.67880000  1
  O  O309  1  0.63890000  0.60630000  0.82930000  1
  O  O310  1  0.63930000  0.90950000  0.79110000  1
  O  O311  1  0.64030000  0.39050000  0.75520000  1
  O  O312  1  0.64590000  0.12970000  0.00990000  1
  O  O313  1  0.65170000  0.16210000  0.53910000  1
  O  O314  1  0.65800000  0.87840000  0.90750000  1
  O  O315  1  0.67360000  0.92720000  0.35790000  1
  O  O316  1  0.69430000  0.13069000  0.89094000  1
  O  O317  1  0.69440000  0.88330000  0.47340000  1
  O  O318  1  0.69520000  0.02627000  0.79141000  1
  O  O319  1  0.70620000  0.24660000  0.96380000  1
  O  O320  1  0.71990000  0.07940000  0.32420000  1
  O  O321  1  0.73140000  0.25340000  0.80440000  1
  O  O322  1  0.73140000  0.85876000  0.27587000  1
  O  O323  1  0.73550000  0.96620000  0.67720000  1
  O  O324  1  0.73750000  0.09220000  0.67050000  1
  O  O325  1  0.74640000  0.65730000  0.44990000  1
  O  O326  1  0.74720000  0.01680000  0.42640000  1
  O  O327  1  0.74810000  0.95510000  0.57290000  1
  O  O328  1  0.75190000  0.04490000  0.07290000  1
  O  O329  1  0.75280000  0.98320000  0.92640000  1
  O  O330  1  0.75360000  0.34270000  0.94990000  1
  O  O331  1  0.76250000  0.90780000  0.17050000  1
  O  O332  1  0.76450000  0.03380000  0.17720000  1
  O  O333  1  0.76860000  0.14124000  0.77587000  1
  O  O334  1  0.76860000  0.74660000  0.30440000  1
  O  O335  1  0.78010000  0.92060000  0.82420000  1
  O  O336  1  0.79380000  0.75340000  0.46380000  1
  O  O337  1  0.80480000  0.97373000  0.29141000  1
  O  O338  1  0.80560000  0.11670000  0.97340000  1
  O  O339  1  0.80570000  0.86931000  0.39094000  1
  O  O340  1  0.82640000  0.07280000  0.85790000  1
  O  O341  1  0.84200000  0.12160000  0.40750000  1
  O  O342  1  0.84830000  0.83790000  0.03910000  1
  O  O343  1  0.85410000  0.87030000  0.50990000  1
  O  O344  1  0.85970000  0.60950000  0.25520000  1
  O  O345  1  0.86070000  0.09050000  0.29110000  1
  O  O346  1  0.86110000  0.39370000  0.32930000  1
  O  O347  1  0.87020000  0.22390000  0.17880000  1
  O  O348  1  0.87050000  0.01660000  0.53000000  1
  O  O349  1  0.87090000  0.84644000  0.26229000  1
  O  O350  1  0.87350000  0.98588000  0.39986000  1
  O  O351  1  0.87370000  0.71420000  0.23410000  1
  O  O352  1  0.88180000  0.99750000  0.63520000  1
  O  O353  1  0.88380000  0.73720000  0.37910000  1
  O  O354  1  0.89000000  0.91410000  0.84420000  1
  O  O355  1  0.89130000  0.06210000  0.01500000  1
  O  O356  1  0.89300000  0.95320000  0.15600000  1
  O  O357  1  0.90170000  0.21040000  0.40300000  1
  O  O358  1  0.90830000  0.83470000  0.12870000  1
  O  O359  1  0.92730000  0.38310000  0.17350000  1
  O  O360  1  0.93790000  0.85617000  0.38100000  1
  O  O361  1  0.94240000  0.78260000  0.49890000  1
  O  O362  1  0.94320000  0.95290000  0.27569000  1
  O  O363  1  0.95620000  0.26910000  0.12910000  1
  O  O364  1  0.96950000  0.41690000  0.32800000  1
  O  O365  1  0.97140000  0.94160000  0.50160000  1
  O  O366  1  0.98130000  0.79510000  0.59690000  1
  O  O367  1  0.98600000  0.46865000  0.10840000  1
  O  O368  1  0.98900000  0.07515000  0.34090000  1
  O  O369  1  0.99100000  0.06561000  0.21470000  1
  O  O370  1  0.99360000  0.66960000  0.29820000  1
  O  O371  1  0.99760000  0.81623000  0.23660000  1
