# generated using pymatgen
data_InH20C36(NO2)2
_symmetry_space_group_name_H-M   'P 1'
_cell_length_a   21.55880000
_cell_length_b   23.59698170
_cell_length_c   43.75500000
_cell_angle_alpha   92.34382576
_cell_angle_beta   90.00000000
_cell_angle_gamma   117.18162480
_symmetry_Int_Tables_number   1
_chemical_formula_structural   InH20C36(NO2)2
_chemical_formula_sum   'In16 H320 C576 N32 O64'
_cell_volume   19779.98537223
_cell_formula_units_Z   16
loop_
 _symmetry_equiv_pos_site_id
 _symmetry_equiv_pos_as_xyz
  1  'x, y, z'
loop_
 _atom_site_type_symbol
 _atom_site_label
 _atom_site_symmetry_multiplicity
 _atom_site_fract_x
 _atom_site_fract_y
 _atom_site_fract_z
 _atom_site_occupancy
  C  C0  1  0.91510000  0.99980000  0.40570000  1
  C  C1  1  0.08470000  0.99980000  0.90570000  1
  C  C2  1  0.81230000  0.98220000  0.10920000  1
  C  C3  1  0.16990000  0.98220000  0.60920000  1
  C  C4  1  0.87600000  0.98140000  0.10610000  1
  C  C5  1  0.10540000  0.98140000  0.60610000  1
  C  C6  1  0.76660000  0.97980000  0.27060000  1
  C  C7  1  0.21320000  0.97980000  0.77060000  1
  C  C8  1  0.71510000  0.97360000  0.79980000  1
  C  C9  1  0.25850000  0.97360000  0.29980000  1
  C  C10  1  0.68780000  0.97060000  0.68950000  1
  C  C11  1  0.28280000  0.97060000  0.18950000  1
  C  C12  1  0.88880000  0.96560000  0.79690000  1
  C  C13  1  0.07680000  0.96560000  0.29690000  1
  C  C14  1  0.95050000  0.96340000  0.80410000  1
  C  C15  1  0.01290000  0.96340000  0.30410000  1
  C  C16  1  0.80870000  0.96180000  0.31840000  1
  C  C17  1  0.15310000  0.96180000  0.81840000  1
  C  C18  1  0.81340000  0.96140000  0.17770000  1
  C  C19  1  0.14800000  0.96140000  0.67770000  1
  C  C20  1  0.80446000  0.95832000  0.43870000  1
  C  C21  1  0.15386000  0.95832000  0.93870000  1
  C  C22  1  0.68120000  0.95680000  0.72120000  1
  C  C23  1  0.27560000  0.95680000  0.22120000  1
  C  C24  1  0.86380000  0.95500000  0.42856000  1
  C  C25  1  0.09120000  0.95500000  0.92856000  1
  C  C26  1  0.69080000  0.95240000  0.77100000  1
  C  C27  1  0.26160000  0.95240000  0.27100000  1
  C  C28  1  0.79040000  0.95020000  0.20620000  1
  C  C29  1  0.15980000  0.95020000  0.70620000  1
  C  C30  1  0.59091000  0.94382000  0.65060000  1
  C  C31  1  0.35291000  0.94382000  0.15060000  1
  C  C32  1  0.75510000  0.94060000  0.09120000  1
  C  C33  1  0.18550000  0.94060000  0.59120000  1
  C  C34  1  0.62480000  0.94000000  0.84080000  1
  C  C35  1  0.31520000  0.94000000  0.34080000  1
  C  C36  1  0.88260000  0.93900000  0.08490000  1
  C  C37  1  0.05640000  0.93900000  0.58490000  1
  C  C38  1  0.56890000  0.93180000  0.12570000  1
  C  C39  1  0.36290000  0.93180000  0.62570000  1
  C  C40  1  0.67470000  0.93020000  0.82450000  1
  C  C41  1  0.25550000  0.93020000  0.32450000  1
  C  C42  1  0.63640000  0.92660000  0.66544000  1
  C  C43  1  0.29020000  0.92660000  0.16544000  1
  C  C44  1  0.46390000  0.92540000  0.55110000  1
  C  C45  1  0.46150000  0.92540000  0.05110000  1
  C  C46  1  0.84110000  0.92060000  0.77630000  1
  C  C47  1  0.07950000  0.92060000  0.27630000  1
  C  C48  1  0.95180000  0.91620000  0.29060000  1
  C  C49  1  0.96440000  0.91620000  0.79060000  1
  C  C50  1  0.71930000  0.91560000  0.26760000  1
  C  C51  1  0.19630000  0.91560000  0.76760000  1
  C  C52  1  0.76160000  0.91540000  0.45960000  1
  C  C53  1  0.15380000  0.91540000  0.95960000  1
  C  C54  1  0.88040000  0.90880000  0.43920000  1
  C  C55  1  0.02840000  0.90880000  0.93920000  1
  C  C56  1  0.54160000  0.90120000  0.62960000  1
  C  C57  1  0.35960000  0.90120000  0.12960000  1
  C  C58  1  0.62690000  0.89920000  0.76050000  1
  C  C59  1  0.27230000  0.89920000  0.26050000  1
  C  C60  1  0.58750000  0.89880000  0.86330000  1
  C  C61  1  0.31130000  0.89880000  0.36330000  1
  C  C62  1  0.76180000  0.89820000  0.07010000  1
  C  C63  1  0.13640000  0.89820000  0.57010000  1
  C  C64  1  0.82550000  0.89740000  0.06690000  1
  C  C65  1  0.76130000  0.89740000  0.31530000  1
  C  C66  1  0.13610000  0.89740000  0.81530000  1
  C  C67  1  0.07190000  0.89740000  0.56690000  1
  C  C68  1  0.62110000  0.89660000  0.72870000  1
  C  C69  1  0.27550000  0.89660000  0.22870000  1
  C  C70  1  0.56670000  0.88460000  0.14930000  1
  C  C71  1  0.31790000  0.88460000  0.64930000  1
  C  C72  1  0.62820000  0.88300000  0.15740000  1
  C  C73  1  0.25480000  0.88300000  0.65740000  1
  C  C74  1  0.53800000  0.87940000  0.52550000  1
  C  C75  1  0.34140000  0.87940000  0.02550000  1
  C  C76  1  0.68720000  0.87900000  0.83070000  1
  C  C77  1  0.19180000  0.87900000  0.33070000  1
  C  C78  1  0.47330000  0.87840000  0.52830000  1
  C  C79  1  0.40510000  0.87840000  0.02830000  1
  C  C80  1  0.71670000  0.87440000  0.28990000  1
  C  C81  1  0.15770000  0.87440000  0.78990000  1
  C  C82  1  0.85480000  0.87320000  0.76280000  1
  C  C83  1  0.01840000  0.87320000  0.26280000  1
  C  C84  1  0.91650000  0.87100000  0.76990000  1
  C  C85  1  0.95450000  0.87100000  0.26990000  1
  C  C86  1  0.77810000  0.86900000  0.47019000  1
  C  C87  1  0.09090000  0.86900000  0.97019000  1
  C  C88  1  0.63240000  0.86680000  0.65930000  1
  C  C89  1  0.23440000  0.86680000  0.15930000  1
  C  C90  1  0.83750000  0.86580000  0.46000000  1
  C  C91  1  0.83040000  0.86580000  0.35170000  1
  C  C92  1  0.03540000  0.86580000  0.85170000  1
  C  C93  1  0.02830000  0.86580000  0.96000000  1
  C  C94  1  0.76800000  0.85740000  0.33850000  1
  C  C95  1  0.08940000  0.85740000  0.83850000  1
  C  C96  1  0.83950000  0.85660000  0.04360000  1
  C  C97  1  0.01710000  0.85660000  0.54360000  1
  C  C98  1  0.71076000  0.84892000  0.52060000  1
  C  C99  1  0.13816000  0.84892000  0.02060000  1
  C  C100  1  0.59990000  0.84740000  0.86950000  1
  C  C101  1  0.24750000  0.84740000  0.36950000  1
  C  C102  1  0.50470000  0.84500000  0.16312000  1
  C  C103  1  0.34030000  0.84500000  0.66312000  1
  C  C104  1  0.62770000  0.84180000  0.17930000  1
  C  C105  1  0.21410000  0.84180000  0.67930000  1
  C  C106  1  0.53760000  0.84140000  0.62353000  1
  C  C107  1  0.30380000  0.84140000  0.12353000  1
  C  C108  1  0.54660000  0.83800000  0.50440000  1
  C  C109  1  0.29140000  0.83800000  0.00440000  1
  C  C110  1  0.64970000  0.83760000  0.85320000  1
  C  C111  1  0.18790000  0.83760000  0.35320000  1
  C  C112  1  0.89050000  0.83640000  0.04600000  1
  C  C113  1  0.94590000  0.83640000  0.54600000  1
  C  C114  1  0.41880000  0.83600000  0.00990000  1
  C  C115  1  0.41720000  0.83600000  0.50990000  1
  C  C116  1  0.79220000  0.83460000  0.01910000  1
  C  C117  1  0.04240000  0.83460000  0.51910000  1
  C  C118  1  0.73400000  0.82860000  0.49472000  1
  C  C119  1  0.09460000  0.82860000  0.99472000  1
  C  C120  1  0.58295000  0.82410000  0.63840000  1
  C  C121  1  0.24115000  0.82410000  0.13840000  1
  C  C122  1  0.80470000  0.82360000  0.74062000  1
  C  C123  1  0.01890000  0.82360000  0.24062000  1
  C  C124  1  0.83080000  0.82160000  0.37170000  1
  C  C125  1  0.99080000  0.82160000  0.87170000  1
  C  C126  1  0.73500000  0.81080000  0.73970000  1
  C  C127  1  0.07580000  0.81080000  0.23970000  1
  C  C128  1  0.67430000  0.80580000  0.54260000  1
  C  C129  1  0.13150000  0.80580000  0.04260000  1
  C  C130  1  0.70590000  0.80480000  0.34530000  1
  C  C131  1  0.09890000  0.80480000  0.84530000  1
  C  C132  1  0.50420000  0.80380000  0.18510000  1
  C  C133  1  0.29960000  0.80380000  0.68510000  1
  C  C134  1  0.56580000  0.80240000  0.19320000  1
  C  C135  1  0.23660000  0.80240000  0.69320000  1
  C  C136  1  0.56090000  0.79960000  0.89290000  1
  C  C137  1  0.23870000  0.79960000  0.39290000  1
  C  C138  1  0.49050000  0.79560000  0.48606000  1
  C  C139  1  0.30510000  0.79560000  0.98606000  1
  C  C140  1  0.41650000  0.79500000  0.59885000  1
  C  C141  1  0.37850000  0.79500000  0.09885000  1
  C  C142  1  0.42590000  0.79480000  0.48883000  1
  C  C143  1  0.36890000  0.79480000  0.98883000  1
  C  C144  1  0.48050000  0.79440000  0.60108000  1
  C  C145  1  0.31390000  0.79440000  0.10108000  1
  C  C146  1  0.89430000  0.79420000  0.02390000  1
  C  C147  1  0.89990000  0.79420000  0.52390000  1
  C  C148  1  0.82910000  0.79380000  0.71920000  1
  C  C149  1  0.96470000  0.79380000  0.21920000  1
  C  C150  1  0.79590000  0.79240000  0.99700000  1
  C  C151  1  0.99650000  0.79240000  0.49700000  1
  C  C152  1  0.49310000  0.78940000  0.89820000  1
  C  C153  1  0.29630000  0.78940000  0.39820000  1
  C  C154  1  0.84700000  0.77220000  0.99940000  1
  C  C155  1  0.92520000  0.77220000  0.49940000  1
  C  C156  1  0.71830000  0.77160000  0.60150000  1
  C  C157  1  0.05330000  0.77160000  0.10150000  1
  C  C158  1  0.72440000  0.76960000  0.63180000  1
  C  C159  1  0.04520000  0.76960000  0.13180000  1
  C  C160  1  0.76880000  0.76920000  0.37850000  1
  C  C161  1  0.00040000  0.76920000  0.87850000  1
  C  C162  1  0.68990000  0.76840000  0.71740000  1
  C  C163  1  0.07850000  0.76840000  0.21740000  1
  C  C164  1  0.58860000  0.76620000  0.90880000  1
  C  C165  1  0.17760000  0.76620000  0.40880000  1
  C  C166  1  0.56298000  0.76596000  0.45210000  1
  C  C167  1  0.20298000  0.76596000  0.95210000  1
  C  C168  1  0.72070000  0.76540000  0.49091000  1
  C  C169  1  0.04470000  0.76540000  0.99091000  1
  C  C170  1  0.70620000  0.76060000  0.36530000  1
  C  C171  1  0.05440000  0.76060000  0.86530000  1
  C  C172  1  0.56550000  0.75700000  0.21775000  1
  C  C173  1  0.19150000  0.75700000  0.71775000  1
  C  C174  1  0.38730000  0.75300000  0.07820000  1
  C  C175  1  0.36570000  0.75300000  0.57820000  1
  C  C176  1  0.49370000  0.75180000  0.58270000  1
  C  C177  1  0.25810000  0.75180000  0.08270000  1
  C  C178  1  0.78400000  0.75140000  0.69690000  1
  C  C179  1  0.96740000  0.75140000  0.19690000  1
  C  C180  1  0.62370000  0.74740000  0.22247000  1
  C  C181  1  0.49890000  0.74740000  0.46592000  1
  C  C182  1  0.24850000  0.74740000  0.96592000  1
  C  C183  1  0.12370000  0.74740000  0.72247000  1
  C  C184  1  0.45290000  0.74560000  0.91940000  1
  C  C185  1  0.29270000  0.74560000  0.41940000  1
  C  C186  1  0.66095000  0.74250000  0.53879000  1
  C  C187  1  0.08155000  0.74250000  0.03879000  1
  C  C188  1  0.71450000  0.73880000  0.69600000  1
  C  C189  1  0.02430000  0.73880000  0.19600000  1
  C  C190  1  0.50750000  0.72760000  0.23600000  1
  C  C191  1  0.22010000  0.72760000  0.73600000  1
  C  C192  1  0.57130000  0.72580000  0.43020000  1
  C  C193  1  0.15450000  0.72580000  0.93020000  1
  C  C194  1  0.85010000  0.72460000  0.97840000  1
  C  C195  1  0.87450000  0.72460000  0.47840000  1
  C  C196  1  0.54840000  0.72260000  0.92990000  1
  C  C197  1  0.17420000  0.72260000  0.42990000  1
  C  C198  1  0.68422000  0.72224000  0.51290000  1
  C  C199  1  0.03802000  0.72224000  0.01290000  1
  C  C200  1  0.76700000  0.72160000  0.39960000  1
  C  C201  1  0.95460000  0.72160000  0.89960000  1
  C  C202  1  0.65540000  0.71520000  0.59290000  1
  C  C203  1  0.05980000  0.71520000  0.09290000  1
  C  C204  1  0.66800000  0.71240000  0.64290000  1
  C  C205  1  0.48060000  0.71240000  0.93520000  1
  C  C206  1  0.23180000  0.71240000  0.43520000  1
  C  C207  1  0.04440000  0.71240000  0.14290000  1
  C  C208  1  0.37883000  0.71046000  0.55979000  1
  C  C209  1  0.33163000  0.71046000  0.05979000  1
  C  C210  1  0.44282000  0.70984000  0.56202000  1
  C  C211  1  0.26702000  0.70984000  0.06202000  1
  C  C212  1  0.62390000  0.70840000  0.24540000  1
  C  C213  1  0.08450000  0.70840000  0.74540000  1
  C  C214  1  0.53100000  0.70300000  0.35690000  1
  C  C215  1  0.17200000  0.70300000  0.85690000  1
  C  C216  1  0.53390000  0.70000000  0.32540000  1
  C  C217  1  0.16610000  0.70000000  0.82540000  1
  C  C218  1  0.62210000  0.69760000  0.56310000  1
  C  C219  1  0.07550000  0.69760000  0.06310000  1
  C  C220  1  0.66030000  0.69200000  0.67440000  1
  C  C221  1  0.03170000  0.69200000  0.17440000  1
  C  C222  1  0.50780000  0.68860000  0.25893000  1
  C  C223  1  0.44310000  0.68860000  0.45780000  1
  C  C224  1  0.24550000  0.68860000  0.95780000  1
  C  C225  1  0.18080000  0.68860000  0.75893000  1
  C  C226  1  0.56605000  0.67910000  0.26365000  1
  C  C227  1  0.11305000  0.67910000  0.76365000  1
  C  C228  1  0.43960000  0.66860000  0.96040000  1
  C  C229  1  0.22900000  0.66860000  0.46040000  1
  C  C230  1  0.51550000  0.66700000  0.42205000  1
  C  C231  1  0.15150000  0.66700000  0.92205000  1
  C  C232  1  0.34451667  0.66663333  0.03620000  1
  C  C233  1  0.32211667  0.66663333  0.53620000  1
  C  C234  1  0.45142000  0.64844000  0.43580000  1
  C  C235  1  0.19702000  0.64844000  0.93580000  1
  C  C236  1  0.53100000  0.64460000  0.36540000  1
  C  C237  1  0.11360000  0.64460000  0.86540000  1
  C  C238  1  0.54050000  0.64440000  0.31570000  1
  C  C239  1  0.10390000  0.64440000  0.81570000  1
  C  C240  1  0.56220000  0.63960000  0.55310000  1
  C  C241  1  0.07740000  0.63960000  0.05310000  1
  C  C242  1  0.60010000  0.63700000  0.68470000  1
  C  C243  1  0.03690000  0.63700000  0.18470000  1
  C  C244  1  0.56060000  0.63060000  0.28710000  1
  C  C245  1  0.07000000  0.63060000  0.78710000  1
  C  C246  1  0.52660000  0.62780000  0.52440000  1
  C  C247  1  0.10120000  0.62780000  0.02440000  1
  C  C248  1  0.52960000  0.62560000  0.39740000  1
  C  C249  1  0.09600000  0.62560000  0.89740000  1
  C  C250  1  0.59070000  0.61880000  0.71550000  1
  C  C251  1  0.02810000  0.61880000  0.21550000  1
  C  C252  1  0.56390000  0.57300000  0.27540000  1
  C  C253  1  0.00910000  0.57300000  0.77540000  1
  C  C254  1  0.47190000  0.56860000  0.52330000  1
  C  C255  1  0.09670000  0.56860000  0.02330000  1
  C  C256  1  0.51630000  0.56240000  0.40520000  1
  C  C257  1  0.04610000  0.56240000  0.90520000  1
  C  C258  1  0.53530000  0.55920000  0.71490000  1
  C  C259  1  0.02390000  0.55920000  0.21490000  1
  C  C260  1  0.56430000  0.55360000  0.24310000  1
  C  C261  1  0.98930000  0.55360000  0.74310000  1
  C  C262  1  0.77130000  0.55200000  0.40020000  1
  C  C263  1  0.78070000  0.55200000  0.90020000  1
  C  C264  1  0.70340000  0.55020000  0.47700000  1
  C  C265  1  0.84680000  0.55020000  0.97700000  1
  C  C266  1  0.51130000  0.54800000  0.43800000  1
  C  C267  1  0.03670000  0.54800000  0.93800000  1
  C  C268  1  0.46800000  0.54620000  0.55430000  1
  C  C269  1  0.07820000  0.54620000  0.05430000  1
  C  C270  1  0.50930000  0.54000000  0.68480000  1
  C  C271  1  0.03070000  0.54000000  0.18480000  1
  C  C272  1  0.67540000  0.50620000  0.86500000  1
  C  C273  1  0.83080000  0.50620000  0.36500000  1
  C  C274  1  0.25780000  0.50480000  0.95230000  1
  C  C275  1  0.24700000  0.50480000  0.45230000  1
  C  C276  1  0.73350000  0.50220000  0.87630000  1
  C  C277  1  0.76870000  0.50220000  0.37630000  1
  C  C278  1  0.35020000  0.50200000  0.03070000  1
  C  C279  1  0.15180000  0.50200000  0.53070000  1
  C  C280  1  0.65920000  0.50160000  0.49930000  1
  C  C281  1  0.84240000  0.50160000  0.99930000  1
  C  C282  1  0.59860000  0.49860000  0.51180000  1
  C  C283  1  0.90000000  0.49860000  0.01180000  1
  C  C284  1  0.55930000  0.49540000  0.24300000  1
  C  C285  1  0.93610000  0.49540000  0.74300000  1
  C  C286  1  0.41980000  0.48760000  0.56470000  1
  C  C287  1  0.06780000  0.48760000  0.06470000  1
  C  C288  1  0.49760000  0.48520000  0.43750000  1
  C  C289  1  0.98760000  0.48520000  0.93750000  1
  C  C290  1  0.45140000  0.48320000  0.67620000  1
  C  C291  1  0.03180000  0.48320000  0.17620000  1
  C  C292  1  0.54960000  0.47640000  0.27440000  1
  C  C293  1  0.92680000  0.47640000  0.77440000  1
  C  C294  1  0.50790000  0.46960000  0.40590000  1
  C  C295  1  0.96170000  0.46960000  0.90590000  1
  C  C296  1  0.41860000  0.46820000  0.64510000  1
  C  C297  1  0.04960000  0.46820000  0.14510000  1
  C  C298  1  0.40810000  0.46620000  0.59490000  1
  C  C299  1  0.05810000  0.46620000  0.09490000  1
  C  C300  1  0.63010000  0.45980000  0.84410000  1
  C  C301  1  0.82970000  0.45980000  0.34410000  1
  C  C302  1  0.68270000  0.45820000  0.50740000  1
  C  C303  1  0.77550000  0.45820000  0.00740000  1
  C  C304  1  0.25180000  0.45680000  0.43030000  1
  C  C305  1  0.20500000  0.45680000  0.93030000  1
  C  C306  1  0.37610000  0.45620000  0.72350000  1
  C  C307  1  0.08010000  0.45620000  0.22350000  1
  C  C308  1  0.31460000  0.45420000  0.42680000  1
  C  C309  1  0.13960000  0.45420000  0.92680000  1
  C  C310  1  0.31710000  0.45360000  0.52671000  1
  C  C311  1  0.13650000  0.45360000  0.02671000  1
  C  C312  1  0.56140000  0.45220000  0.53240000  1
  C  C313  1  0.89080000  0.45220000  0.03240000  1
  C  C314  1  0.70550000  0.45180000  0.36670000  1
  C  C315  1  0.74630000  0.45180000  0.86670000  1
  C  C316  1  0.34560000  0.45120000  0.05140000  1
  C  C317  1  0.10560000  0.45120000  0.55140000  1
  C  C318  1  0.40500000  0.44820000  0.06170000  1
  C  C319  1  0.04320000  0.44820000  0.56170000  1
  C  C320  1  0.36731000  0.44162000  0.54093000  1
  C  C321  1  0.07431000  0.44162000  0.04093000  1
  C  C322  1  0.40990000  0.43900000  0.70067000  1
  C  C323  1  0.02910000  0.43900000  0.20067000  1
  C  C324  1  0.54070000  0.41840000  0.28450000  1
  C  C325  1  0.87770000  0.41840000  0.78450000  1
  C  C326  1  0.22200000  0.41540000  0.91310000  1
  C  C327  1  0.19340000  0.41540000  0.41310000  1
  C  C328  1  0.33840000  0.41300000  0.74528000  1
  C  C329  1  0.07460000  0.41300000  0.24528000  1
  C  C330  1  0.34740000  0.41280000  0.60550000  1
  C  C331  1  0.06540000  0.41280000  0.10550000  1
  C  C332  1  0.35580000  0.41220000  0.63620000  1
  C  C333  1  0.05640000  0.41220000  0.13620000  1
  C  C334  1  0.64550000  0.41180000  0.52800000  1
  C  C335  1  0.76630000  0.41180000  0.02800000  1
  C  C336  1  0.28080000  0.41120000  0.06290000  1
  C  C337  1  0.13040000  0.41120000  0.56290000  1
  C  C338  1  0.31880000  0.41000000  0.40610000  1
  C  C339  1  0.09120000  0.41000000  0.90610000  1
  C  C340  1  0.64290000  0.40920000  0.83450000  1
  C  C341  1  0.76630000  0.40920000  0.33450000  1
  C  C342  1  0.50230000  0.40900000  0.39530000  1
  C  C343  1  0.27010000  0.40900000  0.50566000  1
  C  C344  1  0.13890000  0.40900000  0.00566000  1
  C  C345  1  0.90670000  0.40900000  0.89530000  1
  C  C346  1  0.58480000  0.40880000  0.54040000  1
  C  C347  1  0.82400000  0.40880000  0.04040000  1
  C  C348  1  0.70110000  0.40540000  0.84580000  1
  C  C349  1  0.70430000  0.40540000  0.34580000  1
  C  C350  1  0.39950000  0.40500000  0.08350000  1
  C  C351  1  0.00550000  0.40500000  0.58350000  1
  C  C352  1  0.52900000  0.39540000  0.31560000  1
  C  C353  1  0.86640000  0.39540000  0.81560000  1
  C  C354  1  0.51230000  0.39200000  0.36460000  1
  C  C355  1  0.87970000  0.39200000  0.86460000  1
  C  C356  1  0.37050000  0.38500000  0.53411000  1
  C  C357  1  0.01450000  0.38500000  0.03411000  1
  C  C358  1  0.60521000  0.38422000  0.24500000  1
  C  C359  1  0.77901000  0.38422000  0.74500000  1
  C  C360  1  0.50980000  0.38080000  0.58610000  1
  C  C361  1  0.87100000  0.38080000  0.08610000  1
  C  C362  1  0.40580000  0.37840000  0.69958000  1
  C  C363  1  0.97260000  0.37840000  0.19958000  1
  C  C364  1  0.54344000  0.37588000  0.44150000  1
  C  C365  1  0.83244000  0.37588000  0.94150000  1
  C  C366  1  0.54371000  0.37102000  0.26019000  1
  C  C367  1  0.82731000  0.37102000  0.76019000  1
  C  C368  1  0.19750000  0.37100000  0.39230000  1
  C  C369  1  0.17350000  0.37100000  0.89230000  1
  C  C370  1  0.26030000  0.36840000  0.38880000  1
  C  C371  1  0.10810000  0.36840000  0.88880000  1
  C  C372  1  0.27530000  0.36800000  0.08470000  1
  C  C373  1  0.09270000  0.36800000  0.58470000  1
  C  C374  1  0.33470000  0.36500000  0.09500000  1
  C  C375  1  0.03030000  0.36500000  0.59500000  1
  C  C376  1  0.54570000  0.36360000  0.56420000  1
  C  C377  1  0.81790000  0.36360000  0.06420000  1
  C  C378  1  0.49235000  0.36230000  0.41903000  1
  C  C379  1  0.86995000  0.36230000  0.91903000  1
  C  C380  1  0.59480000  0.35620000  0.81390000  1
  C  C381  1  0.76140000  0.35620000  0.31390000  1
  C  C382  1  0.33430000  0.35240000  0.74420000  1
  C  C383  1  0.01810000  0.35240000  0.24420000  1
  C  C384  1  0.27322000  0.35224000  0.49884000  1
  C  C385  1  0.07902000  0.35224000  0.99884000  1
  C  C386  1  0.32343000  0.34026000  0.51310000  1
  C  C387  1  0.01683000  0.34026000  0.01310000  1
  C  C388  1  0.60730000  0.33980000  0.22372000  1
  C  C389  1  0.73250000  0.33980000  0.72372000  1
  C  C390  1  0.52780000  0.33820000  0.32330000  1
  C  C391  1  0.81040000  0.33820000  0.82330000  1
  C  C392  1  0.47140000  0.33800000  0.60790000  1
  C  C393  1  0.86660000  0.33800000  0.10790000  1
  C  C394  1  0.52360000  0.33760000  0.81470000  1
  C  C395  1  0.81400000  0.33760000  0.31470000  1
  C  C396  1  0.32870000  0.33740000  0.35090000  1
  C  C397  1  0.00870000  0.33740000  0.85090000  1
  C  C398  1  0.51320000  0.33600000  0.35360000  1
  C  C399  1  0.82280000  0.33600000  0.85360000  1
  C  C400  1  0.36805000  0.33510000  0.72130000  1
  C  C401  1  0.96705000  0.33510000  0.22130000  1
  C  C402  1  0.53480000  0.33100000  0.46289000  1
  C  C403  1  0.79620000  0.33100000  0.96289000  1
  C  C404  1  0.62100000  0.33020000  0.79140000  1
  C  C405  1  0.70920000  0.33020000  0.29140000  1
  C  C406  1  0.38290000  0.32880000  0.13690000  1
  C  C407  1  0.94590000  0.32880000  0.63690000  1
  C  C408  1  0.26630000  0.32120000  0.36572000  1
  C  C409  1  0.05490000  0.32120000  0.86572000  1
  C  C410  1  0.32380000  0.31680000  0.11960000  1
  C  C411  1  0.99300000  0.31680000  0.61960000  1
  C  C412  1  0.48450000  0.31360000  0.25403000  1
  C  C413  1  0.82910000  0.31360000  0.75403000  1
  C  C414  1  0.51250000  0.31080000  0.67160000  1
  C  C415  1  0.79830000  0.31080000  0.17160000  1
  C  C416  1  0.23350000  0.30780000  0.77910000  1
  C  C417  1  0.07430000  0.30780000  0.27910000  1
  C  C418  1  0.51480000  0.30720000  0.70200000  1
  C  C419  1  0.79240000  0.30720000  0.20200000  1
  C  C420  1  0.22370000  0.30640000  0.47587000  1
  C  C421  1  0.08270000  0.30640000  0.97587000  1
  C  C422  1  0.54340000  0.30380000  0.56420000  1
  C  C423  1  0.43270000  0.30380000  0.41796000  1
  C  C424  1  0.87110000  0.30380000  0.91796000  1
  C  C425  1  0.76040000  0.30380000  0.06420000  1
  C  C426  1  0.28870000  0.30300000  0.76493000  1
  C  C427  1  0.01430000  0.30300000  0.26493000  1
  C  C428  1  0.15580000  0.29820000  0.47320000  1
  C  C429  1  0.14240000  0.29820000  0.97320000  1
  C  C430  1  0.33400000  0.29480000  0.32940000  1
  C  C431  1  0.96080000  0.29480000  0.82940000  1
  C  C432  1  0.47870000  0.29300000  0.79310000  1
  C  C433  1  0.81430000  0.29300000  0.29310000  1
  C  C434  1  0.37900000  0.28860000  0.16000000  1
  C  C435  1  0.90960000  0.28860000  0.66000000  1
  C  C436  1  0.57610000  0.28560000  0.76980000  1
  C  C437  1  0.70950000  0.28560000  0.26980000  1
  C  C438  1  0.54818000  0.28236000  0.21756000  1
  C  C439  1  0.73418000  0.28236000  0.71756000  1
  C  C440  1  0.46910000  0.27820000  0.60790000  1
  C  C441  1  0.80910000  0.27820000  0.10790000  1
  C  C442  1  0.47511000  0.27262000  0.46182000  1
  C  C443  1  0.79751000  0.27262000  0.96182000  1
  C  C444  1  0.24510000  0.26940000  0.45740000  1
  C  C445  1  0.02430000  0.26940000  0.95740000  1
  C  C446  1  0.48669000  0.26918000  0.23272000  1
  C  C447  1  0.78249000  0.26918000  0.73272000  1
  C  C448  1  0.29410000  0.26720000  0.25890000  1
  C  C449  1  0.97310000  0.26720000  0.75890000  1
  C  C450  1  0.50500000  0.26700000  0.77060000  1
  C  C451  1  0.76200000  0.26700000  0.27060000  1
  C  C452  1  0.30100000  0.26660000  0.22800000  1
  C  C453  1  0.96560000  0.26660000  0.72800000  1
  C  C454  1  0.26060000  0.26440000  0.12540000  1
  C  C455  1  0.00380000  0.26440000  0.62540000  1
  C  C456  1  0.19350000  0.26320000  0.79990000  1
  C  C457  1  0.06970000  0.26320000  0.29990000  1
  C  C458  1  0.20900000  0.26240000  0.35910000  1
  C  C459  1  0.05340000  0.26240000  0.85910000  1
  C  C460  1  0.50520000  0.26120000  0.58610000  1
  C  C461  1  0.75600000  0.26120000  0.08610000  1
  C  C462  1  0.42412000  0.25904000  0.43936000  1
  C  C463  1  0.83492000  0.25904000  0.93936000  1
  C  C464  1  0.45190000  0.25440000  0.66210000  1
  C  C465  1  0.80250000  0.25440000  0.16210000  1
  C  C466  1  0.30370000  0.25340000  0.77150000  1
  C  C467  1  0.94970000  0.25340000  0.27150000  1
  C  C468  1  0.14370000  0.25300000  0.95220000  1
  C  C469  1  0.10930000  0.25300000  0.45220000  1
  C  C470  1  0.46750000  0.25220000  0.71520000  1
  C  C471  1  0.78470000  0.25220000  0.21520000  1
  C  C472  1  0.31580000  0.23620000  0.16580000  1
  C  C473  1  0.92040000  0.23620000  0.66580000  1
  C  C474  1  0.27680000  0.23600000  0.32277000  1
  C  C475  1  0.95920000  0.23600000  0.82277000  1
  C  C476  1  0.55092000  0.23524000  0.19298000  1
  C  C477  1  0.68432000  0.23524000  0.69298000  1
  C  C478  1  0.61420000  0.23500000  0.18700000  1
  C  C479  1  0.62080000  0.23500000  0.68700000  1
  C  C480  1  0.42760000  0.23260000  0.63200000  1
  C  C481  1  0.80500000  0.23260000  0.13200000  1
  C  C482  1  0.45930000  0.22940000  0.74430000  1
  C  C483  1  0.77010000  0.22940000  0.24430000  1
  C  C484  1  0.19870000  0.22440000  0.43637000  1
  C  C485  1  0.02570000  0.22440000  0.93637000  1
  C  C486  1  0.25660000  0.22420000  0.14850000  1
  C  C487  1  0.96760000  0.22420000  0.64850000  1
  C  C488  1  0.47149000  0.22178000  0.48251000  1
  C  C489  1  0.75029000  0.22178000  0.98251000  1
  C  C490  1  0.21435000  0.21990000  0.33760000  1
  C  C491  1  0.00555000  0.21990000  0.83760000  1
  C  C492  1  0.53150000  0.21860000  0.49180000  1
  C  C493  1  0.68710000  0.21860000  0.99180000  1
  C  C494  1  0.13077000  0.21614000  0.43373000  1
  C  C495  1  0.08537000  0.21614000  0.93373000  1
  C  C496  1  0.20840000  0.21340000  0.80641000  1
  C  C497  1  0.00500000  0.21340000  0.30641000  1
  C  C498  1  0.26360000  0.20860000  0.79220000  1
  C  C499  1  0.94500000  0.20860000  0.29220000  1
  C  C500  1  0.28740000  0.20640000  0.26860000  1
  C  C501  1  0.91900000  0.20640000  0.76860000  1
  C  C502  1  0.29990000  0.20540000  0.21820000  1
  C  C503  1  0.90550000  0.20540000  0.71820000  1
  C  C504  1  0.28090000  0.19120000  0.29940000  1
  C  C505  1  0.91030000  0.19120000  0.79940000  1
  C  C506  1  0.49020000  0.19020000  0.17830000  1
  C  C507  1  0.70000000  0.19020000  0.67830000  1
  C  C508  1  0.57310000  0.18980000  0.66640000  1
  C  C509  1  0.61670000  0.18980000  0.16640000  1
  C  C510  1  0.30380000  0.18480000  0.18890000  1
  C  C511  1  0.88100000  0.18480000  0.68890000  1
  C  C512  1  0.40740000  0.18100000  0.49440000  1
  C  C513  1  0.77360000  0.18100000  0.99440000  1
  C  C514  1  0.52720000  0.17460000  0.51290000  1
  C  C515  1  0.64740000  0.17460000  0.01290000  1
  C  C516  1  0.37060000  0.17380000  0.62080000  1
  C  C517  1  0.80320000  0.17380000  0.12080000  1
  C  C518  1  0.40800000  0.16740000  0.75180000  1
  C  C519  1  0.75940000  0.16740000  0.25180000  1
  C  C520  1  0.08660000  0.16700000  0.91280000  1
  C  C521  1  0.08040000  0.16700000  0.41280000  1
  C  C522  1  0.16540000  0.16600000  0.83070000  1
  C  C523  1  0.00060000  0.16600000  0.33070000  1
  C  C524  1  0.34620000  0.15680000  0.58980000  1
  C  C525  1  0.81060000  0.15680000  0.08980000  1
  C  C526  1  0.49268000  0.14496000  0.15761000  1
  C  C527  1  0.65228000  0.14496000  0.65761000  1
  C  C528  1  0.55599000  0.14478000  0.15168000  1
  C  C529  1  0.58879000  0.14478000  0.65168000  1
  C  C530  1  0.39390000  0.13980000  0.78130000  1
  C  C531  1  0.74590000  0.13980000  0.28130000  1
  C  C532  1  0.40320000  0.13720000  0.51550000  1
  C  C533  1  0.73400000  0.13720000  0.01550000  1
  C  C534  1  0.46314000  0.13388000  0.52480000  1
  C  C535  1  0.67074000  0.13388000  0.02480000  1
  C  C536  1  0.27080000  0.12980000  0.30940000  1
  C  C537  1  0.85900000  0.12980000  0.80940000  1
  C  C538  1  0.30040000  0.12740000  0.17790000  1
  C  C539  1  0.82700000  0.12740000  0.67790000  1
  C  C540  1  0.30370000  0.10940000  0.14730000  1
  C  C541  1  0.80570000  0.10940000  0.64730000  1
  C  C542  1  0.26390000  0.10920000  0.34070000  1
  C  C543  1  0.84530000  0.10920000  0.84070000  1
  C  C544  1  0.28680000  0.10600000  0.59270000  1
  C  C545  1  0.81920000  0.10600000  0.09270000  1
  C  C546  1  0.53800000  0.09820000  0.62980000  1
  C  C547  1  0.56020000  0.09820000  0.12980000  1
  C  C548  1  0.45650000  0.08580000  0.54800000  1
  C  C549  1  0.62930000  0.08580000  0.04800000  1
  C  C550  1  0.33710000  0.08500000  0.78270000  1
  C  C551  1  0.74790000  0.08500000  0.28270000  1
  C  C552  1  0.27930000  0.08040000  0.62200000  1
  C  C553  1  0.80110000  0.08040000  0.12200000  1
  C  C554  1  0.30710000  0.07800000  0.75390000  1
  C  C555  1  0.77090000  0.07800000  0.25390000  1
  C  C556  1  0.25990000  0.05180000  0.34030000  1
  C  C557  1  0.79190000  0.05180000  0.84030000  1
  C  C558  1  0.30260000  0.05080000  0.14830000  1
  C  C559  1  0.74820000  0.05080000  0.64830000  1
  C  C560  1  0.30010000  0.03260000  0.18040000  1
  C  C561  1  0.73250000  0.03260000  0.68040000  1
  C  C562  1  0.22140000  0.03100000  0.63310000  1
  C  C563  1  0.80960000  0.03100000  0.13310000  1
  C  C564  1  0.25880000  0.02860000  0.30970000  1
  C  C565  1  0.76980000  0.02860000  0.80970000  1
  C  C566  1  0.24690000  0.02580000  0.74590000  1
  C  C567  1  0.77890000  0.02580000  0.24590000  1
  C  C568  1  0.20520000  0.01060000  0.66270000  1
  C  C569  1  0.80540000  0.01060000  0.16270000  1
  C  C570  1  0.01480000  0.00940000  0.32790000  1
  C  C571  1  0.99460000  0.00940000  0.82790000  1
  C  C572  1  0.22180000  0.00380000  0.71490000  1
  C  C573  1  0.78200000  0.00380000  0.21490000  1
  C  C574  1  0.19160000  0.00300000  0.79600000  1
  C  C575  1  0.81140000  0.00300000  0.29600000  1
  H  H576  1  0.87930000  0.99780000  0.80620000  1
  H  H577  1  0.11850000  0.99780000  0.30620000  1
  H  H578  1  0.79320000  0.99000000  0.43150000  1
  H  H579  1  0.19680000  0.99000000  0.93150000  1
  H  H580  1  0.59370000  0.98480000  0.65470000  1
  H  H581  1  0.39110000  0.98480000  0.15470000  1
  H  H582  1  0.83930000  0.97760000  0.33570000  1
  H  H583  1  0.13830000  0.97760000  0.83570000  1
  H  H584  1  0.61640000  0.97520000  0.83660000  1
  H  H585  1  0.35880000  0.97520000  0.33660000  1
  H  H586  1  0.71150000  0.94100000  0.09340000  1
  H  H587  1  0.22950000  0.94100000  0.59340000  1
  H  H588  1  0.92620000  0.93840000  0.08270000  1
  H  H589  1  0.01220000  0.93840000  0.58270000  1
  H  H590  1  0.83410000  0.93780000  0.16790000  1
  H  H591  1  0.10370000  0.93780000  0.66790000  1
  H  H592  1  0.79890000  0.92200000  0.77140000  1
  H  H593  1  0.12310000  0.92200000  0.27140000  1
  H  H594  1  0.72100000  0.91760000  0.46650000  1
  H  H595  1  0.19660000  0.91760000  0.96650000  1
  H  H596  1  0.90820000  0.91460000  0.29550000  1
  H  H597  1  0.00640000  0.91460000  0.79550000  1
  H  H598  1  0.78170000  0.91420000  0.21780000  1
  H  H599  1  0.13250000  0.91420000  0.71780000  1
  H  H600  1  0.51050000  0.91300000  0.61950000  1
  H  H601  1  0.40250000  0.91300000  0.11950000  1
  H  H602  1  0.67060000  0.91000000  0.14790000  1
  H  H603  1  0.23940000  0.91000000  0.64790000  1
  H  H604  1  0.57620000  0.90820000  0.53800000  1
  H  H605  1  0.33200000  0.90820000  0.03800000  1
  H  H606  1  0.92100000  0.90660000  0.43220000  1
  H  H607  1  0.98560000  0.90660000  0.93220000  1
  H  H608  1  0.55350000  0.90560000  0.87440000  1
  H  H609  1  0.35210000  0.90560000  0.37440000  1
  H  H610  1  0.87280000  0.90160000  0.34700000  1
  H  H611  1  0.02880000  0.90160000  0.84700000  1
  H  H612  1  0.68880000  0.89980000  0.25020000  1
  H  H613  1  0.21100000  0.89980000  0.75020000  1
  H  H614  1  0.71980000  0.89220000  0.52320000  1
  H  H615  1  0.17240000  0.89220000  0.02320000  1
  H  H616  1  0.72120000  0.87220000  0.81960000  1
  H  H617  1  0.15100000  0.87220000  0.31960000  1
  H  H618  1  0.72270000  0.86980000  0.05780000  1
  H  H619  1  0.59330000  0.86980000  0.77350000  1
  H  H620  1  0.27650000  0.86980000  0.27350000  1
  H  H621  1  0.14710000  0.86980000  0.55780000  1
  H  H622  1  0.58730000  0.86460000  0.71540000  1
  H  H623  1  0.27730000  0.86460000  0.21540000  1
  H  H624  1  0.66340000  0.85500000  0.66950000  1
  H  H625  1  0.19160000  0.85500000  0.16950000  1
  H  H626  1  0.92290000  0.85160000  0.06280000  1
  H  H627  1  0.92870000  0.85160000  0.56280000  1
  H  H628  1  0.75730000  0.84840000  0.01750000  1
  H  H629  1  0.09110000  0.84840000  0.51750000  1
  H  H630  1  0.46260000  0.84600000  0.15760000  1
  H  H631  1  0.38340000  0.84600000  0.65760000  1
  H  H632  1  0.66980000  0.84080000  0.18490000  1
  H  H633  1  0.17100000  0.84080000  0.68490000  1
  H  H634  1  0.91280000  0.83880000  0.26070000  1
  H  H635  1  0.92600000  0.83880000  0.76070000  1
  H  H636  1  0.59080000  0.83860000  0.50250000  1
  H  H637  1  0.24780000  0.83860000  0.00250000  1
  H  H638  1  0.46240000  0.83540000  0.01180000  1
  H  H639  1  0.37300000  0.83540000  0.51180000  1
  H  H640  1  0.84880000  0.83420000  0.46730000  1
  H  H641  1  0.98540000  0.83420000  0.96730000  1
  H  H642  1  0.71830000  0.83120000  0.75430000  1
  H  H643  1  0.11290000  0.83120000  0.25430000  1
  H  H644  1  0.68430000  0.83040000  0.28780000  1
  H  H645  1  0.14610000  0.83040000  0.78780000  1
  H  H646  1  0.87350000  0.82740000  0.38070000  1
  H  H647  1  0.95390000  0.82740000  0.88070000  1
  H  H648  1  0.41650000  0.82400000  0.11140000  1
  H  H649  1  0.40750000  0.82400000  0.61140000  1
  H  H650  1  0.65840000  0.81960000  0.56030000  1
  H  H651  1  0.16120000  0.81960000  0.06030000  1
  H  H652  1  0.47420000  0.81220000  0.88740000  1
  H  H653  1  0.33800000  0.81220000  0.38740000  1
  H  H654  1  0.60120000  0.80620000  0.45770000  1
  H  H655  1  0.20500000  0.80620000  0.95770000  1
  H  H656  1  0.74880000  0.80340000  0.58850000  1
  H  H657  1  0.05460000  0.80340000  0.08850000  1
  H  H658  1  0.87680000  0.80260000  0.71990000  1
  H  H659  1  0.65830000  0.80260000  0.85750000  1
  H  H660  1  0.14430000  0.80260000  0.35750000  1
  H  H661  1  0.92580000  0.80260000  0.21990000  1
  H  H662  1  0.76070000  0.80140000  0.64430000  1
  H  H663  1  0.04070000  0.80140000  0.14430000  1
  H  H664  1  0.66320000  0.79900000  0.33630000  1
  H  H665  1  0.13580000  0.79900000  0.83630000  1
  H  H666  1  0.58030000  0.78320000  0.63420000  1
  H  H667  1  0.20290000  0.78320000  0.13420000  1
  H  H668  1  0.85130000  0.78040000  0.52560000  1
  H  H669  1  0.92910000  0.78040000  0.02560000  1
  H  H670  1  0.76350000  0.77720000  0.98030000  1
  H  H671  1  0.01370000  0.77720000  0.48030000  1
  H  H672  1  0.46180000  0.77680000  0.19460000  1
  H  H673  1  0.31500000  0.77680000  0.69460000  1
  H  H674  1  0.63490000  0.77320000  0.90520000  1
  H  H675  1  0.13830000  0.77320000  0.40520000  1
  H  H676  1  0.66330000  0.76740000  0.21000000  1
  H  H677  1  0.10410000  0.76740000  0.71000000  1
  H  H678  1  0.38760000  0.76580000  0.47630000  1
  H  H679  1  0.37820000  0.76580000  0.97630000  1
  H  H680  1  0.64240000  0.75980000  0.71670000  1
  H  H681  1  0.11740000  0.75980000  0.21670000  1
  H  H682  1  0.43150000  0.75340000  0.07670000  1
  H  H683  1  0.32190000  0.75340000  0.57670000  1
  H  H684  1  0.73650000  0.75140000  0.47320000  1
  H  H685  1  0.53740000  0.75140000  0.58420000  1
  H  H686  1  0.21400000  0.75140000  0.08420000  1
  H  H687  1  0.01490000  0.75140000  0.97320000  1
  H  H688  1  0.40650000  0.73860000  0.92300000  1
  H  H689  1  0.33210000  0.73860000  0.42300000  1
  H  H690  1  0.61500000  0.73840000  0.42080000  1
  H  H691  1  0.12340000  0.73840000  0.92080000  1
  H  H692  1  0.52940000  0.73560000  0.36980000  1
  H  H693  1  0.20620000  0.73560000  0.86980000  1
  H  H694  1  0.46780000  0.73420000  0.23280000  1
  H  H695  1  0.26640000  0.73420000  0.73280000  1
  H  H696  1  0.80090000  0.73120000  0.68230000  1
  H  H697  1  0.93030000  0.73120000  0.18230000  1
  H  H698  1  0.53190000  0.73020000  0.31220000  1
  H  H699  1  0.19830000  0.73020000  0.81220000  1
  H  H700  1  0.66390000  0.72480000  0.37000000  1
  H  H701  1  0.06090000  0.72480000  0.87000000  1
  H  H702  1  0.66380000  0.70200000  0.24860000  1
  H  H703  1  0.03820000  0.70200000  0.74860000  1
  H  H704  1  0.56730000  0.69980000  0.94080000  1
  H  H705  1  0.13250000  0.69980000  0.44080000  1
  H  H706  1  0.45180000  0.68080000  0.54940000  1
  H  H707  1  0.22900000  0.68080000  0.04940000  1
  H  H708  1  0.67520000  0.67900000  0.51030000  1
  H  H709  1  0.00380000  0.67900000  0.01030000  1
  H  H710  1  0.39940000  0.67600000  0.46720000  1
  H  H711  1  0.27660000  0.67600000  0.96720000  1
  H  H712  1  0.46820000  0.66860000  0.27140000  1
  H  H713  1  0.20040000  0.66860000  0.77140000  1
  H  H714  1  0.53910000  0.65680000  0.50840000  1
  H  H715  1  0.11770000  0.65680000  0.00840000  1
  H  H716  1  0.61750000  0.64300000  0.73290000  1
  H  H717  1  0.02550000  0.64300000  0.23290000  1
  H  H718  1  0.41330000  0.60820000  0.43030000  1
  H  H719  1  0.19490000  0.60820000  0.93030000  1
  H  H720  1  0.56750000  0.57780000  0.22580000  1
  H  H721  1  0.01030000  0.57780000  0.72580000  1
  H  H722  1  0.51650000  0.57580000  0.45530000  1
  H  H723  1  0.05930000  0.57580000  0.95530000  1
  H  H724  1  0.44250000  0.54640000  0.50620000  1
  H  H725  1  0.10390000  0.54640000  0.00620000  1
  H  H726  1  0.66670000  0.54080000  0.87160000  1
  H  H727  1  0.87410000  0.54080000  0.37160000  1
  H  H728  1  0.51700000  0.53440000  0.73230000  1
  H  H729  1  0.01740000  0.53440000  0.23230000  1
  H  H730  1  0.58250000  0.52820000  0.50630000  1
  H  H731  1  0.94570000  0.52820000  0.00630000  1
  H  H732  1  0.37890000  0.49760000  0.72430000  1
  H  H733  1  0.11870000  0.49760000  0.22430000  1
  H  H734  1  0.31500000  0.49240000  0.53140000  1
  H  H735  1  0.17740000  0.49240000  0.03140000  1
  H  H736  1  0.35450000  0.48260000  0.43870000  1
  H  H737  1  0.12810000  0.48260000  0.93870000  1
  H  H738  1  0.44930000  0.47560000  0.05380000  1
  H  H739  1  0.02630000  0.47560000  0.55380000  1
  H  H740  1  0.56150000  0.47080000  0.22570000  1
  H  H741  1  0.90930000  0.47080000  0.72570000  1
  H  H742  1  0.59050000  0.46260000  0.83640000  1
  H  H743  1  0.87210000  0.46260000  0.33640000  1
  H  H744  1  0.72420000  0.46040000  0.49890000  1
  H  H745  1  0.73620000  0.46040000  0.99890000  1
  H  H746  1  0.48410000  0.45760000  0.45420000  1
  H  H747  1  0.97350000  0.45760000  0.95420000  1
  H  H748  1  0.51980000  0.45000000  0.54090000  1
  H  H749  1  0.93020000  0.45000000  0.04090000  1
  H  H750  1  0.66300000  0.44900000  0.37440000  1
  H  H751  1  0.78600000  0.44900000  0.87440000  1
  H  H752  1  0.31530000  0.42480000  0.76090000  1
  H  H753  1  0.10950000  0.42480000  0.26090000  1
  H  H754  1  0.64570000  0.42360000  0.24920000  1
  H  H755  1  0.77790000  0.42360000  0.74920000  1
  H  H756  1  0.51130000  0.42160000  0.58600000  1
  H  H757  1  0.91030000  0.42160000  0.08600000  1
  H  H758  1  0.26670000  0.41720000  0.91540000  1
  H  H759  1  0.15050000  0.41720000  0.41540000  1
  H  H760  1  0.23570000  0.41700000  0.49590000  1
  H  H761  1  0.18130000  0.41700000  0.99590000  1
  H  H762  1  0.58420000  0.41580000  0.44220000  1
  H  H763  1  0.83160000  0.41580000  0.94220000  1
  H  H764  1  0.24020000  0.41320000  0.05580000  1
  H  H765  1  0.17300000  0.41320000  0.55580000  1
  H  H766  1  0.36170000  0.40820000  0.40370000  1
  H  H767  1  0.04650000  0.40820000  0.90370000  1
  H  H768  1  0.44000000  0.40300000  0.09050000  1
  H  H769  1  0.96300000  0.40300000  0.59050000  1
  H  H770  1  0.30860000  0.38360000  0.59340000  1
  H  H771  1  0.07500000  0.38360000  0.09340000  1
  H  H772  1  0.66150000  0.38220000  0.53350000  1
  H  H773  1  0.72070000  0.38220000  0.03350000  1
  H  H774  1  0.32580000  0.38060000  0.64940000  1
  H  H775  1  0.05480000  0.38060000  0.14940000  1
  H  H776  1  0.36780000  0.37760000  0.35540000  1
  H  H777  1  0.00980000  0.37760000  0.85540000  1
  H  H778  1  0.40480000  0.37680000  0.54380000  1
  H  H779  1  0.97200000  0.37680000  0.04380000  1
  H  H780  1  0.66100000  0.37080000  0.33920000  1
  H  H781  1  0.70980000  0.37080000  0.83920000  1
  H  H782  1  0.42880000  0.36660000  0.68400000  1
  H  H783  1  0.93780000  0.36660000  0.18400000  1
  H  H784  1  0.42610000  0.36460000  0.13300000  1
  H  H785  1  0.93850000  0.36460000  0.63300000  1
  H  H786  1  0.50570000  0.35540000  0.83010000  1
  H  H787  1  0.84970000  0.35540000  0.33010000  1
  H  H788  1  0.44690000  0.34980000  0.62280000  1
  H  H789  1  0.90290000  0.34980000  0.12280000  1
  H  H790  1  0.64930000  0.34880000  0.21340000  1
  H  H791  1  0.69950000  0.34880000  0.71340000  1
  H  H792  1  0.54400000  0.34340000  0.65930000  1
  H  H793  1  0.79940000  0.34340000  0.15930000  1
  H  H794  1  0.66960000  0.34280000  0.79090000  1
  H  H795  1  0.67320000  0.34280000  0.29090000  1
  H  H796  1  0.18500000  0.34260000  0.88050000  1
  H  H797  1  0.15760000  0.34260000  0.38050000  1
  H  H798  1  0.54830000  0.34180000  0.71420000  1
  H  H799  1  0.22330000  0.34180000  0.77470000  1
  H  H800  1  0.11850000  0.34180000  0.27470000  1
  H  H801  1  0.79350000  0.34180000  0.21420000  1
  H  H802  1  0.23100000  0.34060000  0.09250000  1
  H  H803  1  0.10960000  0.34060000  0.59250000  1
  H  H804  1  0.56970000  0.34040000  0.47820000  1
  H  H805  1  0.77070000  0.34040000  0.97820000  1
  H  H806  1  0.18220000  0.32340000  0.98580000  1
  H  H807  1  0.14120000  0.32340000  0.48580000  1
  H  H808  1  0.53540000  0.30840000  0.31060000  1
  H  H809  1  0.77300000  0.30840000  0.81060000  1
  H  H810  1  0.37680000  0.30600000  0.31930000  1
  H  H811  1  0.92920000  0.30600000  0.81930000  1
  H  H812  1  0.44240000  0.30440000  0.26440000  1
  H  H813  1  0.86200000  0.30440000  0.76440000  1
  H  H814  1  0.32560000  0.30160000  0.50840000  1
  H  H815  1  0.97600000  0.30160000  0.00840000  1
  H  H816  1  0.50480000  0.30080000  0.36570000  1
  H  H817  1  0.79600000  0.30080000  0.86570000  1
  H  H818  1  0.29360000  0.30060000  0.27160000  1
  H  H819  1  0.00700000  0.30060000  0.77160000  1
  H  H820  1  0.30580000  0.29960000  0.21500000  1
  H  H821  1  0.99380000  0.29960000  0.71500000  1
  H  H822  1  0.41940000  0.29680000  0.17180000  1
  H  H823  1  0.87740000  0.29680000  0.67180000  1
  H  H824  1  0.39780000  0.29460000  0.40260000  1
  H  H825  1  0.89680000  0.29460000  0.90260000  1
  H  H826  1  0.36530000  0.29380000  0.72060000  1
  H  H827  1  0.92850000  0.29380000  0.22060000  1
  H  H828  1  0.56800000  0.29220000  0.54930000  1
  H  H829  1  0.72420000  0.29220000  0.04930000  1
  H  H830  1  0.43010000  0.28020000  0.79360000  1
  H  H831  1  0.85010000  0.28020000  0.29360000  1
  H  H832  1  0.29150000  0.27500000  0.45920000  1
  H  H833  1  0.98350000  0.27500000  0.95920000  1
  H  H834  1  0.59400000  0.26780000  0.75440000  1
  H  H835  1  0.67380000  0.26780000  0.25440000  1
  H  H836  1  0.15570000  0.26640000  0.80960000  1
  H  H837  1  0.11070000  0.26640000  0.30960000  1
  H  H838  1  0.61010000  0.26580000  0.69710000  1
  H  H839  1  0.65570000  0.26580000  0.19710000  1
  H  H840  1  0.22020000  0.25620000  0.11360000  1
  H  H841  1  0.03600000  0.25620000  0.61360000  1
  H  H842  1  0.16640000  0.25140000  0.36920000  1
  H  H843  1  0.08500000  0.25140000  0.86920000  1
  H  H844  1  0.34140000  0.25000000  0.76180000  1
  H  H845  1  0.90860000  0.25000000  0.26180000  1
  H  H846  1  0.18450000  0.24740000  0.95040000  1
  H  H847  1  0.06290000  0.24740000  0.45040000  1
  H  H848  1  0.57530000  0.24640000  0.48370000  1
  H  H849  1  0.67110000  0.24640000  0.98370000  1
  H  H850  1  0.44620000  0.22980000  0.22850000  1
  H  H851  1  0.78360000  0.22980000  0.72850000  1
  H  H852  1  0.50350000  0.22020000  0.58610000  1
  H  H853  1  0.71670000  0.22020000  0.08610000  1
  H  H854  1  0.38340000  0.21920000  0.43860000  1
  H  H855  1  0.83580000  0.21920000  0.93860000  1
  H  H856  1  0.21330000  0.19920000  0.42380000  1
  H  H857  1  0.98590000  0.19920000  0.92380000  1
  H  H858  1  0.44690000  0.19020000  0.18230000  1
  H  H859  1  0.74330000  0.19020000  0.68230000  1
  H  H860  1  0.52980000  0.18980000  0.66230000  1
  H  H861  1  0.66000000  0.18980000  0.16230000  1
  H  H862  1  0.21340000  0.18840000  0.15250000  1
  H  H863  1  0.97500000  0.18840000  0.65250000  1
  H  H864  1  0.36640000  0.18320000  0.48810000  1
  H  H865  1  0.81680000  0.18320000  0.98810000  1
  H  H866  1  0.17530000  0.17980000  0.33310000  1
  H  H867  1  0.00450000  0.17980000  0.83310000  1
  H  H868  1  0.36760000  0.17720000  0.57170000  1
  H  H869  1  0.80960000  0.17720000  0.07170000  1
  H  H870  1  0.27380000  0.17460000  0.79670000  1
  H  H871  1  0.90080000  0.17460000  0.29670000  1
  H  H872  1  0.56820000  0.17240000  0.51930000  1
  H  H873  1  0.60420000  0.17240000  0.01930000  1
  H  H874  1  0.42360000  0.15980000  0.79860000  1
  H  H875  1  0.73620000  0.15980000  0.29860000  1
  H  H876  1  0.26250000  0.13320000  0.35840000  1
  H  H877  1  0.87070000  0.13320000  0.85840000  1
  H  H878  1  0.30610000  0.13260000  0.12970000  1
  H  H879  1  0.82650000  0.13260000  0.62970000  1
  H  H880  1  0.45120000  0.11420000  0.14760000  1
  H  H881  1  0.66300000  0.11420000  0.64760000  1
  H  H882  1  0.35940000  0.10940000  0.52370000  1
  H  H883  1  0.75000000  0.10940000  0.02370000  1
  H  H884  1  0.25220000  0.08800000  0.57690000  1
  H  H885  1  0.83580000  0.08800000  0.07690000  1
  H  H886  1  0.32090000  0.05740000  0.79920000  1
  H  H887  1  0.73650000  0.05740000  0.29920000  1
  H  H888  1  0.20320000  0.04700000  0.79810000  1
  H  H889  1  0.84380000  0.04700000  0.29810000  1
  H  H890  1  0.25800000  0.02920000  0.35800000  1
  H  H891  1  0.77120000  0.02920000  0.85800000  1
  H  H892  1  0.30350000  0.02580000  0.13090000  1
  H  H893  1  0.72230000  0.02580000  0.63090000  1
  H  H894  1  0.09480000  0.00980000  0.61840000  1
  H  H895  1  0.91500000  0.00980000  0.11840000  1
  In  In896  1  0.77536000  0.63896000  0.43853000  1
  In  In897  1  0.86360000  0.63896000  0.93853000  1
  In  In898  1  0.54538000  0.58528000  0.61840000  1
  In  In899  1  0.03990000  0.58528000  0.11840000  1
  In  In900  1  0.34434000  0.58502000  0.99501000  1
  In  In901  1  0.24068000  0.58502000  0.49501000  1
  In  In902  1  0.53245000  0.52134000  0.34068000  1
  In  In903  1  0.98889000  0.52134000  0.84068000  1
  In  In904  1  0.33426000  0.13060000  0.68796000  1
  In  In905  1  0.79634000  0.13060000  0.18796000  1
  In  In906  1  0.08634000  0.08518000  0.86953000  1
  In  In907  1  0.99884000  0.08518000  0.36953000  1
  In  In908  1  0.28075000  0.07960000  0.24405000  1
  In  In909  1  0.79885000  0.07960000  0.74405000  1
  In  In910  1  0.45317000  0.00956000  0.58868000  1
  In  In911  1  0.55639000  0.00956000  0.08868000  1
  N  N912  1  0.72160000  0.98820000  0.74340000  1
  N  N913  1  0.26660000  0.98820000  0.24340000  1
  N  N914  1  0.62300000  0.67800000  0.61730000  1
  N  N915  1  0.05500000  0.67800000  0.11730000  1
  N  N916  1  0.53910000  0.61060000  0.34030000  1
  N  N917  1  0.07150000  0.61060000  0.84030000  1
  N  N918  1  0.54890000  0.58920000  0.66600000  1
  N  N919  1  0.04030000  0.58920000  0.16600000  1
  N  N920  1  0.52050000  0.58900000  0.57090000  1
  N  N921  1  0.06850000  0.58900000  0.07090000  1
  N  N922  1  0.55200000  0.52260000  0.29170000  1
  N  N923  1  0.97060000  0.52260000  0.79170000  1
  N  N924  1  0.51780000  0.51740000  0.38750000  1
  N  N925  1  0.99960000  0.51740000  0.88750000  1
  N  N926  1  0.45280000  0.50360000  0.61940000  1
  N  N927  1  0.05080000  0.50360000  0.11940000  1
  N  N928  1  0.52400000  0.42740000  0.34000000  1
  N  N929  1  0.90340000  0.42740000  0.84000000  1
  N  N930  1  0.42770000  0.22200000  0.68860000  1
  N  N931  1  0.79430000  0.22200000  0.18860000  1
  N  N932  1  0.29200000  0.17120000  0.24420000  1
  N  N933  1  0.87920000  0.17120000  0.74420000  1
  N  N934  1  0.32710000  0.12580000  0.64050000  1
  N  N935  1  0.79870000  0.12580000  0.14050000  1
  N  N936  1  0.34740000  0.12300000  0.73560000  1
  N  N937  1  0.77560000  0.12300000  0.23560000  1
  N  N938  1  0.29390000  0.08000000  0.19690000  1
  N  N939  1  0.78610000  0.08000000  0.69690000  1
  N  N940  1  0.26790000  0.07500000  0.29050000  1
  N  N941  1  0.80710000  0.07500000  0.79050000  1
  N  N942  1  0.25060000  0.03920000  0.68910000  1
  N  N943  1  0.78860000  0.03920000  0.18910000  1
  O  O944  1  0.61970000  0.96380000  0.11150000  1
  O  O945  1  0.34410000  0.96380000  0.61150000  1
  O  O946  1  0.51810000  0.96140000  0.56740000  1
  O  O947  1  0.44330000  0.96140000  0.06740000  1
  O  O948  1  0.51620000  0.93940000  0.12470000  1
  O  O949  1  0.42320000  0.93940000  0.62470000  1
  O  O950  1  0.51870000  0.92500000  0.05280000  1
  O  O951  1  0.40630000  0.92500000  0.55280000  1
  O  O952  1  0.82250000  0.71700000  0.40440000  1
  O  O953  1  0.89450000  0.71700000  0.90440000  1
  O  O954  1  0.81350000  0.71060000  0.47670000  1
  O  O955  1  0.89710000  0.71060000  0.97670000  1
  O  O956  1  0.81220000  0.69840000  0.95810000  1
  O  O957  1  0.88620000  0.69840000  0.45810000  1
  O  O958  1  0.72510000  0.69040000  0.41840000  1
  O  O959  1  0.96530000  0.69040000  0.91840000  1
  O  O960  1  0.39770000  0.66420000  0.03390000  1
  O  O961  1  0.26650000  0.66420000  0.53390000  1
  O  O962  1  0.37520000  0.65740000  0.96030000  1
  O  O963  1  0.28220000  0.65740000  0.46030000  1
  O  O964  1  0.46120000  0.63800000  0.97400000  1
  O  O965  1  0.17680000  0.63800000  0.47400000  1
  O  O966  1  0.33990000  0.63100000  0.51890000  1
  O  O967  1  0.29110000  0.63100000  0.01890000  1
  O  O968  1  0.68630000  0.59320000  0.46780000  1
  O  O969  1  0.90690000  0.59320000  0.96780000  1
  O  O970  1  0.76330000  0.59200000  0.91190000  1
  O  O971  1  0.82870000  0.59200000  0.41190000  1
  O  O972  1  0.71500000  0.55720000  0.40420000  1
  O  O973  1  0.84220000  0.55720000  0.90420000  1
  O  O974  1  0.76400000  0.55540000  0.46940000  1
  O  O975  1  0.79140000  0.55540000  0.96940000  1
  O  O976  1  0.30090000  0.54060000  0.46770000  1
  O  O977  1  0.23970000  0.54060000  0.96770000  1
  O  O978  1  0.40220000  0.53780000  0.02040000  1
  O  O979  1  0.13560000  0.53780000  0.52040000  1
  O  O980  1  0.29870000  0.50780000  0.02670000  1
  O  O981  1  0.20910000  0.50780000  0.52670000  1
  O  O982  1  0.31860000  0.50600000  0.95580000  1
  O  O983  1  0.18740000  0.50600000  0.45580000  1
  O  O984  1  0.14150000  0.16380000  0.90870000  1
  O  O985  1  0.02230000  0.16380000  0.40870000  1
  O  O986  1  0.11100000  0.16280000  0.83770000  1
  O  O987  1  0.05180000  0.16280000  0.33770000  1
  O  O988  1  0.09730000  0.13240000  0.39620000  1
  O  O989  1  0.03510000  0.13240000  0.89620000  1
  O  O990  1  0.19520000  0.13160000  0.84100000  1
  O  O991  1  0.93640000  0.13160000  0.34100000  1
  O  O992  1  0.48120000  0.09300000  0.62433000  1
  O  O993  1  0.61180000  0.09300000  0.12433000  1
  O  O994  1  0.51380000  0.08720000  0.55550000  1
  O  O995  1  0.57340000  0.08720000  0.05550000  1
  O  O996  1  0.49910000  0.05880000  0.11470000  1
  O  O997  1  0.55970000  0.05880000  0.61470000  1
  O  O998  1  0.40010000  0.05380000  0.55970000  1
  O  O999  1  0.65370000  0.05380000  0.05970000  1
  O  O1000  1  0.06570000  0.04340000  0.34310000  1
  O  O1001  1  0.97770000  0.04340000  0.84310000  1
  O  O1002  1  0.14140000  0.03540000  0.89240000  1
  O  O1003  1  0.89400000  0.03540000  0.39240000  1
  O  O1004  1  0.05400000  0.01140000  0.83110000  1
  O  O1005  1  0.95740000  0.01140000  0.33110000  1
  O  O1006  1  0.03280000  0.00480000  0.90210000  1
  O  O1007  1  0.97200000  0.00480000  0.40210000  1
