# generated using pymatgen
data_ZnH5C6(N2O)2
_symmetry_space_group_name_H-M   'P 1'
_cell_length_a   12.70000000
_cell_length_b   12.70000000
_cell_length_c   25.36400000
_cell_angle_alpha   90.00000000
_cell_angle_beta   90.00000000
_cell_angle_gamma   90.00000000
_symmetry_Int_Tables_number   1
_chemical_formula_structural   ZnH5C6(N2O)2
_chemical_formula_sum   'Zn16 H80 C96 N64 O32'
_cell_volume   4090.95956000
_cell_formula_units_Z   16
loop_
 _symmetry_equiv_pos_site_id
 _symmetry_equiv_pos_as_xyz
  1  'x, y, z'
loop_
 _atom_site_type_symbol
 _atom_site_label
 _atom_site_symmetry_multiplicity
 _atom_site_fract_x
 _atom_site_fract_y
 _atom_site_fract_z
 _atom_site_occupancy
  Zn  Zn0  1  0.03855000  0.56926000  0.06247000  1
  Zn  Zn1  1  0.03855000  0.93074000  0.43753000  1
  Zn  Zn2  1  0.06926000  0.53855000  0.56247000  1
  Zn  Zn3  1  0.06926000  0.96145000  0.93753000  1
  Zn  Zn4  1  0.43074000  0.53855000  0.93753000  1
  Zn  Zn5  1  0.43074000  0.96145000  0.56247000  1
  Zn  Zn6  1  0.46145000  0.56926000  0.43753000  1
  Zn  Zn7  1  0.46145000  0.93074000  0.06247000  1
  Zn  Zn8  1  0.53855000  0.06926000  0.93753000  1
  Zn  Zn9  1  0.53855000  0.43074000  0.56247000  1
  Zn  Zn10  1  0.56926000  0.03855000  0.43753000  1
  Zn  Zn11  1  0.56926000  0.46145000  0.06247000  1
  Zn  Zn12  1  0.93074000  0.03855000  0.06247000  1
  Zn  Zn13  1  0.93074000  0.46145000  0.43753000  1
  Zn  Zn14  1  0.96145000  0.06926000  0.56247000  1
  Zn  Zn15  1  0.96145000  0.43074000  0.93753000  1
  H  H16  1  0.03230000  0.24400000  0.64570000  1
  H  H17  1  0.03230000  0.25600000  0.85430000  1
  H  H18  1  0.04490000  0.13950000  0.85260000  1
  H  H19  1  0.04490000  0.36050000  0.64740000  1
  H  H20  1  0.06030000  0.72330000  0.96870000  1
  H  H21  1  0.06030000  0.77670000  0.53130000  1
  H  H22  1  0.06830000  0.68360000  0.83440000  1
  H  H23  1  0.06830000  0.81640000  0.66560000  1
  H  H24  1  0.07130000  0.57300000  0.26260000  1
  H  H25  1  0.07130000  0.92700000  0.23740000  1
  H  H26  1  0.07300000  0.57130000  0.76260000  1
  H  H27  1  0.07300000  0.92870000  0.73740000  1
  H  H28  1  0.13950000  0.04490000  0.64740000  1
  H  H29  1  0.13950000  0.45510000  0.85260000  1
  H  H30  1  0.18360000  0.56830000  0.33440000  1
  H  H31  1  0.18360000  0.93170000  0.16560000  1
  H  H32  1  0.22330000  0.56030000  0.46870000  1
  H  H33  1  0.22330000  0.93970000  0.03130000  1
  H  H34  1  0.24400000  0.03230000  0.85430000  1
  H  H35  1  0.24400000  0.46770000  0.64570000  1
  H  H36  1  0.25600000  0.03230000  0.64570000  1
  H  H37  1  0.25600000  0.46770000  0.85430000  1
  H  H38  1  0.27670000  0.56030000  0.03130000  1
  H  H39  1  0.27670000  0.93970000  0.46870000  1
  H  H40  1  0.31640000  0.56830000  0.16560000  1
  H  H41  1  0.31640000  0.93170000  0.33440000  1
  H  H42  1  0.36050000  0.04490000  0.85260000  1
  H  H43  1  0.36050000  0.45510000  0.64740000  1
  H  H44  1  0.42700000  0.57130000  0.73740000  1
  H  H45  1  0.42700000  0.92870000  0.76260000  1
  H  H46  1  0.42870000  0.57300000  0.23740000  1
  H  H47  1  0.42870000  0.92700000  0.26260000  1
  H  H48  1  0.43170000  0.68360000  0.66560000  1
  H  H49  1  0.43170000  0.81640000  0.83440000  1
  H  H50  1  0.43970000  0.72330000  0.53130000  1
  H  H51  1  0.43970000  0.77670000  0.96870000  1
  H  H52  1  0.45510000  0.13950000  0.64740000  1
  H  H53  1  0.45510000  0.36050000  0.85260000  1
  H  H54  1  0.46770000  0.24400000  0.85430000  1
  H  H55  1  0.46770000  0.25600000  0.64570000  1
  H  H56  1  0.53230000  0.74400000  0.35430000  1
  H  H57  1  0.53230000  0.75600000  0.14570000  1
  H  H58  1  0.54490000  0.63950000  0.14740000  1
  H  H59  1  0.54490000  0.86050000  0.35260000  1
  H  H60  1  0.56030000  0.22330000  0.03130000  1
  H  H61  1  0.56030000  0.27670000  0.46870000  1
  H  H62  1  0.56830000  0.18360000  0.16560000  1
  H  H63  1  0.56830000  0.31640000  0.33440000  1
  H  H64  1  0.57130000  0.07300000  0.73740000  1
  H  H65  1  0.57130000  0.42700000  0.76260000  1
  H  H66  1  0.57300000  0.07130000  0.23740000  1
  H  H67  1  0.57300000  0.42870000  0.26260000  1
  H  H68  1  0.63950000  0.54490000  0.35260000  1
  H  H69  1  0.63950000  0.95510000  0.14740000  1
  H  H70  1  0.68360000  0.06830000  0.66560000  1
  H  H71  1  0.68360000  0.43170000  0.83440000  1
  H  H72  1  0.72330000  0.06030000  0.53130000  1
  H  H73  1  0.72330000  0.43970000  0.96870000  1
  H  H74  1  0.74400000  0.53230000  0.14570000  1
  H  H75  1  0.74400000  0.96770000  0.35430000  1
  H  H76  1  0.75600000  0.53230000  0.35430000  1
  H  H77  1  0.75600000  0.96770000  0.14570000  1
  H  H78  1  0.77670000  0.06030000  0.96870000  1
  H  H79  1  0.77670000  0.43970000  0.53130000  1
  H  H80  1  0.81640000  0.06830000  0.83440000  1
  H  H81  1  0.81640000  0.43170000  0.66560000  1
  H  H82  1  0.86050000  0.54490000  0.14740000  1
  H  H83  1  0.86050000  0.95510000  0.35260000  1
  H  H84  1  0.92700000  0.07130000  0.26260000  1
  H  H85  1  0.92700000  0.42870000  0.23740000  1
  H  H86  1  0.92870000  0.07300000  0.76260000  1
  H  H87  1  0.92870000  0.42700000  0.73740000  1
  H  H88  1  0.93170000  0.18360000  0.33440000  1
  H  H89  1  0.93170000  0.31640000  0.16560000  1
  H  H90  1  0.93970000  0.22330000  0.46870000  1
  H  H91  1  0.93970000  0.27670000  0.03130000  1
  H  H92  1  0.95510000  0.63950000  0.35260000  1
  H  H93  1  0.95510000  0.86050000  0.14740000  1
  H  H94  1  0.96770000  0.74400000  0.14570000  1
  H  H95  1  0.96770000  0.75600000  0.35430000  1
  C  C96  1  0.00460000  0.19040000  0.91755000  1
  C  C97  1  0.00460000  0.30960000  0.58245000  1
  C  C98  1  0.04140000  0.73700000  0.50199000  1
  C  C99  1  0.04140000  0.76300000  0.99801000  1
  C  C100  1  0.06890000  0.60750000  0.66120000  1
  C  C101  1  0.06890000  0.89250000  0.83880000  1
  C  C102  1  0.06930000  0.71100000  0.80040000  1
  C  C103  1  0.06930000  0.78900000  0.69960000  1
  C  C104  1  0.06940000  0.68200000  0.70730000  1
  C  C105  1  0.06940000  0.81800000  0.79270000  1
  C  C106  1  0.07090000  0.64370000  0.75720000  1
  C  C107  1  0.07090000  0.85630000  0.74280000  1
  C  C108  1  0.10750000  0.56890000  0.16120000  1
  C  C109  1  0.10750000  0.93110000  0.33880000  1
  C  C110  1  0.14370000  0.57090000  0.25720000  1
  C  C111  1  0.14370000  0.92910000  0.24280000  1
  C  C112  1  0.18200000  0.56940000  0.20730000  1
  C  C113  1  0.18200000  0.93060000  0.29270000  1
  C  C114  1  0.19040000  0.00460000  0.58245000  1
  C  C115  1  0.19040000  0.49540000  0.91755000  1
  C  C116  1  0.21100000  0.56930000  0.30040000  1
  C  C117  1  0.21100000  0.93070000  0.19960000  1
  C  C118  1  0.23700000  0.54140000  0.00199000  1
  C  C119  1  0.23700000  0.95860000  0.49801000  1
  C  C120  1  0.26300000  0.54140000  0.49801000  1
  C  C121  1  0.26300000  0.95860000  0.00199000  1
  C  C122  1  0.28900000  0.56930000  0.19960000  1
  C  C123  1  0.28900000  0.93070000  0.30040000  1
  C  C124  1  0.30960000  0.00460000  0.91755000  1
  C  C125  1  0.30960000  0.49540000  0.58245000  1
  C  C126  1  0.31800000  0.56940000  0.29270000  1
  C  C127  1  0.31800000  0.93060000  0.20730000  1
  C  C128  1  0.35630000  0.57090000  0.24280000  1
  C  C129  1  0.35630000  0.92910000  0.25720000  1
  C  C130  1  0.39250000  0.56890000  0.33880000  1
  C  C131  1  0.39250000  0.93110000  0.16120000  1
  C  C132  1  0.42910000  0.64370000  0.74280000  1
  C  C133  1  0.42910000  0.85630000  0.75720000  1
  C  C134  1  0.43060000  0.68200000  0.79270000  1
  C  C135  1  0.43060000  0.81800000  0.70730000  1
  C  C136  1  0.43070000  0.71100000  0.69960000  1
  C  C137  1  0.43070000  0.78900000  0.80040000  1
  C  C138  1  0.43110000  0.60750000  0.83880000  1
  C  C139  1  0.43110000  0.89250000  0.66120000  1
  C  C140  1  0.45860000  0.73700000  0.99801000  1
  C  C141  1  0.45860000  0.76300000  0.50199000  1
  C  C142  1  0.49540000  0.19040000  0.58245000  1
  C  C143  1  0.49540000  0.30960000  0.91755000  1
  C  C144  1  0.50460000  0.69040000  0.08245000  1
  C  C145  1  0.50460000  0.80960000  0.41755000  1
  C  C146  1  0.54140000  0.23700000  0.49801000  1
  C  C147  1  0.54140000  0.26300000  0.00199000  1
  C  C148  1  0.56890000  0.10750000  0.33880000  1
  C  C149  1  0.56890000  0.39250000  0.16120000  1
  C  C150  1  0.56930000  0.21100000  0.19960000  1
  C  C151  1  0.56930000  0.28900000  0.30040000  1
  C  C152  1  0.56940000  0.18200000  0.29270000  1
  C  C153  1  0.56940000  0.31800000  0.20730000  1
  C  C154  1  0.57090000  0.14370000  0.24280000  1
  C  C155  1  0.57090000  0.35630000  0.25720000  1
  C  C156  1  0.60750000  0.06890000  0.83880000  1
  C  C157  1  0.60750000  0.43110000  0.66120000  1
  C  C158  1  0.64370000  0.07090000  0.74280000  1
  C  C159  1  0.64370000  0.42910000  0.75720000  1
  C  C160  1  0.68200000  0.06940000  0.79270000  1
  C  C161  1  0.68200000  0.43060000  0.70730000  1
  C  C162  1  0.69040000  0.50460000  0.41755000  1
  C  C163  1  0.69040000  0.99540000  0.08245000  1
  C  C164  1  0.71100000  0.06930000  0.69960000  1
  C  C165  1  0.71100000  0.43070000  0.80040000  1
  C  C166  1  0.73700000  0.04140000  0.99801000  1
  C  C167  1  0.73700000  0.45860000  0.50199000  1
  C  C168  1  0.76300000  0.04140000  0.50199000  1
  C  C169  1  0.76300000  0.45860000  0.99801000  1
  C  C170  1  0.78900000  0.06930000  0.80040000  1
  C  C171  1  0.78900000  0.43070000  0.69960000  1
  C  C172  1  0.80960000  0.50460000  0.08245000  1
  C  C173  1  0.80960000  0.99540000  0.41755000  1
  C  C174  1  0.81800000  0.06940000  0.70730000  1
  C  C175  1  0.81800000  0.43060000  0.79270000  1
  C  C176  1  0.85630000  0.07090000  0.75720000  1
  C  C177  1  0.85630000  0.42910000  0.74280000  1
  C  C178  1  0.89250000  0.06890000  0.66120000  1
  C  C179  1  0.89250000  0.43110000  0.83880000  1
  C  C180  1  0.92910000  0.14370000  0.25720000  1
  C  C181  1  0.92910000  0.35630000  0.24280000  1
  C  C182  1  0.93060000  0.18200000  0.20730000  1
  C  C183  1  0.93060000  0.31800000  0.29270000  1
  C  C184  1  0.93070000  0.21100000  0.30040000  1
  C  C185  1  0.93070000  0.28900000  0.19960000  1
  C  C186  1  0.93110000  0.10750000  0.16120000  1
  C  C187  1  0.93110000  0.39250000  0.33880000  1
  C  C188  1  0.95860000  0.23700000  0.00199000  1
  C  C189  1  0.95860000  0.26300000  0.49801000  1
  C  C190  1  0.99540000  0.69040000  0.41755000  1
  C  C191  1  0.99540000  0.80960000  0.08245000  1
  N  N192  1  0.00160000  0.09740000  0.94860000  1
  N  N193  1  0.00160000  0.40260000  0.55140000  1
  N  N194  1  0.02200000  0.72330000  0.04945000  1
  N  N195  1  0.02200000  0.77670000  0.45055000  1
  N  N196  1  0.02680000  0.62620000  0.50079000  1
  N  N197  1  0.02680000  0.87380000  0.99921000  1
  N  N198  1  0.02990000  0.19590000  0.86980000  1
  N  N199  1  0.02990000  0.30410000  0.63020000  1
  N  N200  1  0.09740000  0.00160000  0.55140000  1
  N  N201  1  0.09740000  0.49840000  0.94860000  1
  N  N202  1  0.12620000  0.52680000  0.00079000  1
  N  N203  1  0.12620000  0.97320000  0.49921000  1
  N  N204  1  0.19590000  0.02990000  0.63020000  1
  N  N205  1  0.19590000  0.47010000  0.86980000  1
  N  N206  1  0.22330000  0.52200000  0.54945000  1
  N  N207  1  0.22330000  0.97800000  0.95055000  1
  N  N208  1  0.27670000  0.52200000  0.95055000  1
  N  N209  1  0.27670000  0.97800000  0.54945000  1
  N  N210  1  0.30410000  0.02990000  0.86980000  1
  N  N211  1  0.30410000  0.47010000  0.63020000  1
  N  N212  1  0.37380000  0.52680000  0.49921000  1
  N  N213  1  0.37380000  0.97320000  0.00079000  1
  N  N214  1  0.40260000  0.00160000  0.94860000  1
  N  N215  1  0.40260000  0.49840000  0.55140000  1
  N  N216  1  0.47010000  0.19590000  0.63020000  1
  N  N217  1  0.47010000  0.30410000  0.86980000  1
  N  N218  1  0.47320000  0.62620000  0.99921000  1
  N  N219  1  0.47320000  0.87380000  0.50079000  1
  N  N220  1  0.47800000  0.72330000  0.45055000  1
  N  N221  1  0.47800000  0.77670000  0.04945000  1
  N  N222  1  0.49840000  0.09740000  0.55140000  1
  N  N223  1  0.49840000  0.40260000  0.94860000  1
  N  N224  1  0.50160000  0.59740000  0.05140000  1
  N  N225  1  0.50160000  0.90260000  0.44860000  1
  N  N226  1  0.52200000  0.22330000  0.95055000  1
  N  N227  1  0.52200000  0.27670000  0.54945000  1
  N  N228  1  0.52680000  0.12620000  0.49921000  1
  N  N229  1  0.52680000  0.37380000  0.00079000  1
  N  N230  1  0.52990000  0.69590000  0.13020000  1
  N  N231  1  0.52990000  0.80410000  0.36980000  1
  N  N232  1  0.59740000  0.50160000  0.44860000  1
  N  N233  1  0.59740000  0.99840000  0.05140000  1
  N  N234  1  0.62620000  0.02680000  0.99921000  1
  N  N235  1  0.62620000  0.47320000  0.50079000  1
  N  N236  1  0.69590000  0.52990000  0.36980000  1
  N  N237  1  0.69590000  0.97010000  0.13020000  1
  N  N238  1  0.72330000  0.02200000  0.45055000  1
  N  N239  1  0.72330000  0.47800000  0.04945000  1
  N  N240  1  0.77670000  0.02200000  0.04945000  1
  N  N241  1  0.77670000  0.47800000  0.45055000  1
  N  N242  1  0.80410000  0.52990000  0.13020000  1
  N  N243  1  0.80410000  0.97010000  0.36980000  1
  N  N244  1  0.87380000  0.02680000  0.50079000  1
  N  N245  1  0.87380000  0.47320000  0.99921000  1
  N  N246  1  0.90260000  0.50160000  0.05140000  1
  N  N247  1  0.90260000  0.99840000  0.44860000  1
  N  N248  1  0.97010000  0.69590000  0.36980000  1
  N  N249  1  0.97010000  0.80410000  0.13020000  1
  N  N250  1  0.97320000  0.12620000  0.00079000  1
  N  N251  1  0.97320000  0.37380000  0.49921000  1
  N  N252  1  0.97800000  0.22330000  0.54945000  1
  N  N253  1  0.97800000  0.27670000  0.95055000  1
  N  N254  1  0.99840000  0.59740000  0.44860000  1
  N  N255  1  0.99840000  0.90260000  0.05140000  1
  O  O256  1  0.01250000  0.58810000  0.16710000  1
  O  O257  1  0.01250000  0.91190000  0.33290000  1
  O  O258  1  0.05050000  0.64640000  0.61620000  1
  O  O259  1  0.05050000  0.85360000  0.88380000  1
  O  O260  1  0.08810000  0.51250000  0.66710000  1
  O  O261  1  0.08810000  0.98750000  0.83290000  1
  O  O262  1  0.14640000  0.55050000  0.11620000  1
  O  O263  1  0.14640000  0.94950000  0.38380000  1
  O  O264  1  0.35360000  0.55050000  0.38380000  1
  O  O265  1  0.35360000  0.94950000  0.11620000  1
  O  O266  1  0.41190000  0.51250000  0.83290000  1
  O  O267  1  0.41190000  0.98750000  0.66710000  1
  O  O268  1  0.44950000  0.64640000  0.88380000  1
  O  O269  1  0.44950000  0.85360000  0.61620000  1
  O  O270  1  0.48750000  0.58810000  0.33290000  1
  O  O271  1  0.48750000  0.91190000  0.16710000  1
  O  O272  1  0.51250000  0.08810000  0.83290000  1
  O  O273  1  0.51250000  0.41190000  0.66710000  1
  O  O274  1  0.55050000  0.14640000  0.38380000  1
  O  O275  1  0.55050000  0.35360000  0.11620000  1
  O  O276  1  0.58810000  0.01250000  0.33290000  1
  O  O277  1  0.58810000  0.48750000  0.16710000  1
  O  O278  1  0.64640000  0.05050000  0.88380000  1
  O  O279  1  0.64640000  0.44950000  0.61620000  1
  O  O280  1  0.85360000  0.05050000  0.61620000  1
  O  O281  1  0.85360000  0.44950000  0.88380000  1
  O  O282  1  0.91190000  0.01250000  0.16710000  1
  O  O283  1  0.91190000  0.48750000  0.33290000  1
  O  O284  1  0.94950000  0.14640000  0.11620000  1
  O  O285  1  0.94950000  0.35360000  0.38380000  1
  O  O286  1  0.98750000  0.08810000  0.66710000  1
  O  O287  1  0.98750000  0.41190000  0.83290000  1
