# generated using pymatgen
data_Cu4H20C37O20
_symmetry_space_group_name_H-M   'P 1'
_cell_length_a   12.24730000
_cell_length_b   25.91400000
_cell_length_c   25.91410000
_cell_angle_alpha   90.00000000
_cell_angle_beta   90.00000000
_cell_angle_gamma   90.00000000
_symmetry_Int_Tables_number   1
_chemical_formula_structural   Cu4H20C37O20
_chemical_formula_sum   'Cu16 H80 C148 O80'
_cell_volume   8224.52719308
_cell_formula_units_Z   4
loop_
 _symmetry_equiv_pos_site_id
 _symmetry_equiv_pos_as_xyz
  1  'x, y, z'
loop_
 _atom_site_type_symbol
 _atom_site_label
 _atom_site_symmetry_multiplicity
 _atom_site_fract_x
 _atom_site_fract_y
 _atom_site_fract_z
 _atom_site_occupancy
  Cu  Cu0  1  0.00464000  0.20295000  0.75000000  1
  Cu  Cu1  1  0.00464000  0.29705000  0.25000000  1
  Cu  Cu2  1  0.07411000  0.00601000  0.53674000  1
  Cu  Cu3  1  0.07411000  0.00601000  0.96326000  1
  Cu  Cu4  1  0.07411000  0.49399000  0.03674000  1
  Cu  Cu5  1  0.07411000  0.49399000  0.46326000  1
  Cu  Cu6  1  0.14575000  0.72377000  0.25000000  1
  Cu  Cu7  1  0.14575000  0.77623000  0.75000000  1
  Cu  Cu8  1  0.85425000  0.22377000  0.25000000  1
  Cu  Cu9  1  0.85425000  0.27623000  0.75000000  1
  Cu  Cu10  1  0.92589000  0.50601000  0.53674000  1
  Cu  Cu11  1  0.92589000  0.50601000  0.96326000  1
  Cu  Cu12  1  0.92589000  0.99399000  0.03674000  1
  Cu  Cu13  1  0.92589000  0.99399000  0.46326000  1
  Cu  Cu14  1  0.99536000  0.70295000  0.75000000  1
  Cu  Cu15  1  0.99536000  0.79705000  0.25000000  1
  H  H16  1  0.00180000  0.62440000  0.13110000  1
  H  H17  1  0.00180000  0.62440000  0.36890000  1
  H  H18  1  0.00180000  0.87560000  0.63110000  1
  H  H19  1  0.00180000  0.87560000  0.86890000  1
  H  H20  1  0.09770000  0.61440000  0.62900000  1
  H  H21  1  0.09770000  0.61440000  0.87100000  1
  H  H22  1  0.09770000  0.88560000  0.12900000  1
  H  H23  1  0.09770000  0.88560000  0.37100000  1
  H  H24  1  0.21120000  0.24460000  0.13510000  1
  H  H25  1  0.21120000  0.24460000  0.36490000  1
  H  H26  1  0.21120000  0.25540000  0.63510000  1
  H  H27  1  0.21120000  0.25540000  0.86490000  1
  H  H28  1  0.24750000  0.13280000  0.02720000  1
  H  H29  1  0.24750000  0.13280000  0.47280000  1
  H  H30  1  0.24750000  0.36720000  0.52720000  1
  H  H31  1  0.24750000  0.36720000  0.97280000  1
  H  H32  1  0.30230000  0.61220000  0.50820000  1
  H  H33  1  0.30230000  0.61220000  0.99180000  1
  H  H34  1  0.30230000  0.88780000  0.00820000  1
  H  H35  1  0.30230000  0.88780000  0.49180000  1
  H  H36  1  0.33590000  0.19470000  0.51170000  1
  H  H37  1  0.33590000  0.19470000  0.98830000  1
  H  H38  1  0.33590000  0.30530000  0.01170000  1
  H  H39  1  0.33590000  0.30530000  0.48830000  1
  H  H40  1  0.33810000  0.71970000  0.61910000  1
  H  H41  1  0.33810000  0.71970000  0.88090000  1
  H  H42  1  0.33810000  0.78030000  0.11910000  1
  H  H43  1  0.33810000  0.78030000  0.38090000  1
  H  H44  1  0.41530000  0.74090000  0.05370000  1
  H  H45  1  0.41530000  0.74090000  0.44630000  1
  H  H46  1  0.41530000  0.75910000  0.55370000  1
  H  H47  1  0.41530000  0.75910000  0.94630000  1
  H  H48  1  0.43150000  0.17460000  0.02580000  1
  H  H49  1  0.43150000  0.17460000  0.47420000  1
  H  H50  1  0.43150000  0.32540000  0.52580000  1
  H  H51  1  0.43150000  0.32540000  0.97420000  1
  H  H52  1  0.48580000  0.22500000  0.57600000  1
  H  H53  1  0.48580000  0.22500000  0.92400000  1
  H  H54  1  0.48580000  0.27500000  0.07600000  1
  H  H55  1  0.48580000  0.27500000  0.42400000  1
  H  H56  1  0.51420000  0.72500000  0.57600000  1
  H  H57  1  0.51420000  0.72500000  0.92400000  1
  H  H58  1  0.51420000  0.77500000  0.07600000  1
  H  H59  1  0.51420000  0.77500000  0.42400000  1
  H  H60  1  0.56850000  0.67460000  0.02580000  1
  H  H61  1  0.56850000  0.67460000  0.47420000  1
  H  H62  1  0.56850000  0.82540000  0.52580000  1
  H  H63  1  0.56850000  0.82540000  0.97420000  1
  H  H64  1  0.58470000  0.24090000  0.05370000  1
  H  H65  1  0.58470000  0.24090000  0.44630000  1
  H  H66  1  0.58470000  0.25910000  0.55370000  1
  H  H67  1  0.58470000  0.25910000  0.94630000  1
  H  H68  1  0.66190000  0.21970000  0.61910000  1
  H  H69  1  0.66190000  0.21970000  0.88090000  1
  H  H70  1  0.66190000  0.28030000  0.11910000  1
  H  H71  1  0.66190000  0.28030000  0.38090000  1
  H  H72  1  0.66410000  0.69470000  0.51170000  1
  H  H73  1  0.66410000  0.69470000  0.98830000  1
  H  H74  1  0.66410000  0.80530000  0.01170000  1
  H  H75  1  0.66410000  0.80530000  0.48830000  1
  H  H76  1  0.69770000  0.11220000  0.50820000  1
  H  H77  1  0.69770000  0.11220000  0.99180000  1
  H  H78  1  0.69770000  0.38780000  0.00820000  1
  H  H79  1  0.69770000  0.38780000  0.49180000  1
  H  H80  1  0.75250000  0.63280000  0.02720000  1
  H  H81  1  0.75250000  0.63280000  0.47280000  1
  H  H82  1  0.75250000  0.86720000  0.52720000  1
  H  H83  1  0.75250000  0.86720000  0.97280000  1
  H  H84  1  0.78880000  0.74460000  0.13510000  1
  H  H85  1  0.78880000  0.74460000  0.36490000  1
  H  H86  1  0.78880000  0.75540000  0.63510000  1
  H  H87  1  0.78880000  0.75540000  0.86490000  1
  H  H88  1  0.90230000  0.11440000  0.62900000  1
  H  H89  1  0.90230000  0.11440000  0.87100000  1
  H  H90  1  0.90230000  0.38560000  0.12900000  1
  H  H91  1  0.90230000  0.38560000  0.37100000  1
  H  H92  1  0.99820000  0.12440000  0.13110000  1
  H  H93  1  0.99820000  0.12440000  0.36890000  1
  H  H94  1  0.99820000  0.37560000  0.63110000  1
  H  H95  1  0.99820000  0.37560000  0.86890000  1
  C  C96  1  0.03430000  0.21400000  0.18098000  1
  C  C97  1  0.03430000  0.21400000  0.31902000  1
  C  C98  1  0.03430000  0.28600000  0.68098000  1
  C  C99  1  0.03430000  0.28600000  0.81902000  1
  C  C100  1  0.06000000  0.14190000  0.11755000  1
  C  C101  1  0.06000000  0.14190000  0.38245000  1
  C  C102  1  0.06000000  0.35810000  0.61755000  1
  C  C103  1  0.06000000  0.35810000  0.88245000  1
  C  C104  1  0.07800000  0.07323000  0.05025000  1
  C  C105  1  0.07800000  0.07323000  0.44975000  1
  C  C106  1  0.07800000  0.42677000  0.55025000  1
  C  C107  1  0.07800000  0.42677000  0.94975000  1
  C  C108  1  0.09480000  0.18840000  0.13875000  1
  C  C109  1  0.09480000  0.18840000  0.36125000  1
  C  C110  1  0.09480000  0.31160000  0.63875000  1
  C  C111  1  0.09480000  0.31160000  0.86125000  1
  C  C112  1  0.11850000  0.12139000  0.07543000  1
  C  C113  1  0.11850000  0.12139000  0.42457000  1
  C  C114  1  0.11850000  0.37861000  0.57543000  1
  C  C115  1  0.11850000  0.37861000  0.92457000  1
  C  C116  1  0.12750000  0.56322000  0.54064000  1
  C  C117  1  0.12750000  0.56322000  0.95936000  1
  C  C118  1  0.12750000  0.93678000  0.04064000  1
  C  C119  1  0.12750000  0.93678000  0.45936000  1
  C  C120  1  0.15840000  0.62840000  0.61101000  1
  C  C121  1  0.15840000  0.62840000  0.88899000  1
  C  C122  1  0.15840000  0.87160000  0.11101000  1
  C  C123  1  0.15840000  0.87160000  0.38899000  1
  C  C124  1  0.16790000  0.69580000  0.67974000  1
  C  C125  1  0.16790000  0.69580000  0.82026000  1
  C  C126  1  0.16790000  0.80420000  0.17974000  1
  C  C127  1  0.16790000  0.80420000  0.32026000  1
  C  C128  1  0.18660000  0.21360000  0.11941000  1
  C  C129  1  0.18660000  0.21360000  0.38059000  1
  C  C130  1  0.18660000  0.28640000  0.61941000  1
  C  C131  1  0.18660000  0.28640000  0.88059000  1
  C  C132  1  0.19140000  0.60640000  0.56434000  1
  C  C133  1  0.19140000  0.60640000  0.93566000  1
  C  C134  1  0.19140000  0.89360000  0.06434000  1
  C  C135  1  0.19140000  0.89360000  0.43566000  1
  C  C136  1  0.20860000  0.14700000  0.05558000  1
  C  C137  1  0.20860000  0.14700000  0.44442000  1
  C  C138  1  0.20860000  0.35300000  0.55558000  1
  C  C139  1  0.20860000  0.35300000  0.94442000  1
  C  C140  1  0.21250000  0.66977000  0.63089000  1
  C  C141  1  0.21250000  0.66977000  0.86911000  1
  C  C142  1  0.21250000  0.83023000  0.13089000  1
  C  C143  1  0.21250000  0.83023000  0.36911000  1
  C  C144  1  0.24210000  0.19360000  0.07741000  1
  C  C145  1  0.24210000  0.19360000  0.42259000  1
  C  C146  1  0.24210000  0.30640000  0.57741000  1
  C  C147  1  0.24210000  0.30640000  0.92259000  1
  C  C148  1  0.27880000  0.62710000  0.53974000  1
  C  C149  1  0.27880000  0.62710000  0.96026000  1
  C  C150  1  0.27880000  0.87290000  0.03974000  1
  C  C151  1  0.27880000  0.87290000  0.46026000  1
  C  C152  1  0.30060000  0.69070000  0.60532000  1
  C  C153  1  0.30060000  0.69070000  0.89468000  1
  C  C154  1  0.30060000  0.80930000  0.10532000  1
  C  C155  1  0.30060000  0.80930000  0.39468000  1
  C  C156  1  0.33380000  0.66854000  0.55876000  1
  C  C157  1  0.33380000  0.66854000  0.94124000  1
  C  C158  1  0.33380000  0.83146000  0.05876000  1
  C  C159  1  0.33380000  0.83146000  0.44124000  1
  C  C160  1  0.38600000  0.20473000  0.01653000  1
  C  C161  1  0.38600000  0.20473000  0.48347000  1
  C  C162  1  0.38600000  0.29527000  0.51653000  1
  C  C163  1  0.38600000  0.29527000  0.98347000  1
  C  C164  1  0.45770000  0.25000000  0.00000000  1
  C  C165  1  0.45770000  0.25000000  0.50000000  1
  C  C166  1  0.46910000  0.73200000  0.54503000  1
  C  C167  1  0.46910000  0.73200000  0.95497000  1
  C  C168  1  0.46910000  0.76800000  0.04503000  1
  C  C169  1  0.46910000  0.76800000  0.45497000  1
  C  C170  1  0.53090000  0.23200000  0.54503000  1
  C  C171  1  0.53090000  0.23200000  0.95497000  1
  C  C172  1  0.53090000  0.26800000  0.04503000  1
  C  C173  1  0.53090000  0.26800000  0.45497000  1
  C  C174  1  0.54230000  0.75000000  0.00000000  1
  C  C175  1  0.54230000  0.75000000  0.50000000  1
  C  C176  1  0.61400000  0.70473000  0.01653000  1
  C  C177  1  0.61400000  0.70473000  0.48347000  1
  C  C178  1  0.61400000  0.79527000  0.51653000  1
  C  C179  1  0.61400000  0.79527000  0.98347000  1
  C  C180  1  0.66620000  0.16854000  0.55876000  1
  C  C181  1  0.66620000  0.16854000  0.94124000  1
  C  C182  1  0.66620000  0.33146000  0.05876000  1
  C  C183  1  0.66620000  0.33146000  0.44124000  1
  C  C184  1  0.69940000  0.19070000  0.60532000  1
  C  C185  1  0.69940000  0.19070000  0.89468000  1
  C  C186  1  0.69940000  0.30930000  0.10532000  1
  C  C187  1  0.69940000  0.30930000  0.39468000  1
  C  C188  1  0.72120000  0.12710000  0.53974000  1
  C  C189  1  0.72120000  0.12710000  0.96026000  1
  C  C190  1  0.72120000  0.37290000  0.03974000  1
  C  C191  1  0.72120000  0.37290000  0.46026000  1
  C  C192  1  0.75790000  0.69360000  0.07741000  1
  C  C193  1  0.75790000  0.69360000  0.42259000  1
  C  C194  1  0.75790000  0.80640000  0.57741000  1
  C  C195  1  0.75790000  0.80640000  0.92259000  1
  C  C196  1  0.78750000  0.16977000  0.63089000  1
  C  C197  1  0.78750000  0.16977000  0.86911000  1
  C  C198  1  0.78750000  0.33023000  0.13089000  1
  C  C199  1  0.78750000  0.33023000  0.36911000  1
  C  C200  1  0.79140000  0.64700000  0.05558000  1
  C  C201  1  0.79140000  0.64700000  0.44442000  1
  C  C202  1  0.79140000  0.85300000  0.55558000  1
  C  C203  1  0.79140000  0.85300000  0.94442000  1
  C  C204  1  0.80860000  0.10640000  0.56434000  1
  C  C205  1  0.80860000  0.10640000  0.93566000  1
  C  C206  1  0.80860000  0.39360000  0.06434000  1
  C  C207  1  0.80860000  0.39360000  0.43566000  1
  C  C208  1  0.81340000  0.71360000  0.11941000  1
  C  C209  1  0.81340000  0.71360000  0.38059000  1
  C  C210  1  0.81340000  0.78640000  0.61941000  1
  C  C211  1  0.81340000  0.78640000  0.88059000  1
  C  C212  1  0.83210000  0.19580000  0.67974000  1
  C  C213  1  0.83210000  0.19580000  0.82026000  1
  C  C214  1  0.83210000  0.30420000  0.17974000  1
  C  C215  1  0.83210000  0.30420000  0.32026000  1
  C  C216  1  0.84160000  0.12840000  0.61101000  1
  C  C217  1  0.84160000  0.12840000  0.88899000  1
  C  C218  1  0.84160000  0.37160000  0.11101000  1
  C  C219  1  0.84160000  0.37160000  0.38899000  1
  C  C220  1  0.87250000  0.06322000  0.54064000  1
  C  C221  1  0.87250000  0.06322000  0.95936000  1
  C  C222  1  0.87250000  0.43678000  0.04064000  1
  C  C223  1  0.87250000  0.43678000  0.45936000  1
  C  C224  1  0.88150000  0.62139000  0.07543000  1
  C  C225  1  0.88150000  0.62139000  0.42457000  1
  C  C226  1  0.88150000  0.87861000  0.57543000  1
  C  C227  1  0.88150000  0.87861000  0.92457000  1
  C  C228  1  0.90520000  0.68840000  0.13875000  1
  C  C229  1  0.90520000  0.68840000  0.36125000  1
  C  C230  1  0.90520000  0.81160000  0.63875000  1
  C  C231  1  0.90520000  0.81160000  0.86125000  1
  C  C232  1  0.92200000  0.57323000  0.05025000  1
  C  C233  1  0.92200000  0.57323000  0.44975000  1
  C  C234  1  0.92200000  0.92677000  0.55025000  1
  C  C235  1  0.92200000  0.92677000  0.94975000  1
  C  C236  1  0.94000000  0.64190000  0.11755000  1
  C  C237  1  0.94000000  0.64190000  0.38245000  1
  C  C238  1  0.94000000  0.85810000  0.61755000  1
  C  C239  1  0.94000000  0.85810000  0.88245000  1
  C  C240  1  0.96570000  0.71400000  0.18098000  1
  C  C241  1  0.96570000  0.71400000  0.31902000  1
  C  C242  1  0.96570000  0.78600000  0.68098000  1
  C  C243  1  0.96570000  0.78600000  0.81902000  1
  O  O244  1  0.00190000  0.55159000  0.07070000  1
  O  O245  1  0.00190000  0.55159000  0.42930000  1
  O  O246  1  0.00190000  0.94841000  0.57070000  1
  O  O247  1  0.00190000  0.94841000  0.92930000  1
  O  O248  1  0.03710000  0.55218000  0.56270000  1
  O  O249  1  0.03710000  0.55218000  0.93730000  1
  O  O250  1  0.03710000  0.94782000  0.06270000  1
  O  O251  1  0.03710000  0.94782000  0.43730000  1
  O  O252  1  0.05290000  0.69264000  0.19693000  1
  O  O253  1  0.05290000  0.69264000  0.30307000  1
  O  O254  1  0.05290000  0.80736000  0.69693000  1
  O  O255  1  0.05290000  0.80736000  0.80307000  1
  O  O256  1  0.07210000  0.24487000  0.69809000  1
  O  O257  1  0.07210000  0.24487000  0.80191000  1
  O  O258  1  0.07210000  0.25513000  0.19809000  1
  O  O259  1  0.07210000  0.25513000  0.30191000  1
  O  O260  1  0.08300000  0.67320000  0.69778000  1
  O  O261  1  0.08300000  0.67320000  0.80222000  1
  O  O262  1  0.08300000  0.82680000  0.19778000  1
  O  O263  1  0.08300000  0.82680000  0.30222000  1
  O  O264  1  0.12460000  0.06088000  0.00899000  1
  O  O265  1  0.12460000  0.06088000  0.49101000  1
  O  O266  1  0.12460000  0.43912000  0.50899000  1
  O  O267  1  0.12460000  0.43912000  0.99101000  1
  O  O268  1  0.16300000  0.54371000  0.00007000  1
  O  O269  1  0.16300000  0.54371000  0.49993000  1
  O  O270  1  0.16300000  0.95629000  0.50007000  1
  O  O271  1  0.16300000  0.95629000  0.99993000  1
  O  O272  1  0.21670000  0.73454000  0.69596000  1
  O  O273  1  0.21670000  0.73454000  0.80404000  1
  O  O274  1  0.21670000  0.76546000  0.19596000  1
  O  O275  1  0.21670000  0.76546000  0.30404000  1
  O  O276  1  0.32560000  0.22237000  0.06031000  1
  O  O277  1  0.32560000  0.22237000  0.43969000  1
  O  O278  1  0.32560000  0.27763000  0.56031000  1
  O  O279  1  0.32560000  0.27763000  0.93969000  1
  O  O280  1  0.41510000  0.68672000  0.52930000  1
  O  O281  1  0.41510000  0.68672000  0.97070000  1
  O  O282  1  0.41510000  0.81328000  0.02930000  1
  O  O283  1  0.41510000  0.81328000  0.47070000  1
  O  O284  1  0.58490000  0.18672000  0.52930000  1
  O  O285  1  0.58490000  0.18672000  0.97070000  1
  O  O286  1  0.58490000  0.31328000  0.02930000  1
  O  O287  1  0.58490000  0.31328000  0.47070000  1
  O  O288  1  0.67440000  0.72237000  0.06031000  1
  O  O289  1  0.67440000  0.72237000  0.43969000  1
  O  O290  1  0.67440000  0.77763000  0.56031000  1
  O  O291  1  0.67440000  0.77763000  0.93969000  1
  O  O292  1  0.78330000  0.23454000  0.69596000  1
  O  O293  1  0.78330000  0.23454000  0.80404000  1
  O  O294  1  0.78330000  0.26546000  0.19596000  1
  O  O295  1  0.78330000  0.26546000  0.30404000  1
  O  O296  1  0.83700000  0.04371000  0.00007000  1
  O  O297  1  0.83700000  0.04371000  0.49993000  1
  O  O298  1  0.83700000  0.45629000  0.50007000  1
  O  O299  1  0.83700000  0.45629000  0.99993000  1
  O  O300  1  0.87540000  0.56088000  0.00899000  1
  O  O301  1  0.87540000  0.56088000  0.49101000  1
  O  O302  1  0.87540000  0.93912000  0.50899000  1
  O  O303  1  0.87540000  0.93912000  0.99101000  1
  O  O304  1  0.91700000  0.17320000  0.69778000  1
  O  O305  1  0.91700000  0.17320000  0.80222000  1
  O  O306  1  0.91700000  0.32680000  0.19778000  1
  O  O307  1  0.91700000  0.32680000  0.30222000  1
  O  O308  1  0.92790000  0.74487000  0.69809000  1
  O  O309  1  0.92790000  0.74487000  0.80191000  1
  O  O310  1  0.92790000  0.75513000  0.19809000  1
  O  O311  1  0.92790000  0.75513000  0.30191000  1
  O  O312  1  0.94710000  0.19264000  0.19693000  1
  O  O313  1  0.94710000  0.19264000  0.30307000  1
  O  O314  1  0.94710000  0.30736000  0.69693000  1
  O  O315  1  0.94710000  0.30736000  0.80307000  1
  O  O316  1  0.96290000  0.05218000  0.56270000  1
  O  O317  1  0.96290000  0.05218000  0.93730000  1
  O  O318  1  0.96290000  0.44782000  0.06270000  1
  O  O319  1  0.96290000  0.44782000  0.43730000  1
  O  O320  1  0.99810000  0.05159000  0.07070000  1
  O  O321  1  0.99810000  0.05159000  0.42930000  1
  O  O322  1  0.99810000  0.44841000  0.57070000  1
  O  O323  1  0.99810000  0.44841000  0.92930000  1
