# generated using pymatgen
data_InH4C12(SO4)2
_symmetry_space_group_name_H-M   'P 1'
_cell_length_a   13.57700000
_cell_length_b   13.57700000
_cell_length_c   15.53940000
_cell_angle_alpha   90.00000000
_cell_angle_beta   90.00000000
_cell_angle_gamma   90.00000000
_symmetry_Int_Tables_number   1
_chemical_formula_structural   InH4C12(SO4)2
_chemical_formula_sum   'In4 H16 C48 S8 O32'
_cell_volume   2864.45419570
_cell_formula_units_Z   4
loop_
 _symmetry_equiv_pos_site_id
 _symmetry_equiv_pos_as_xyz
  1  'x, y, z'
loop_
 _atom_site_type_symbol
 _atom_site_label
 _atom_site_symmetry_multiplicity
 _atom_site_fract_x
 _atom_site_fract_y
 _atom_site_fract_z
 _atom_site_occupancy
  In  In0  1  0.00000000  0.42385000  0.50000000  1
  In  In1  1  0.00000000  0.57615000  0.00000000  1
  In  In2  1  0.42385000  0.00000000  0.25000000  1
  In  In3  1  0.57615000  0.00000000  0.75000000  1
  H  H4  1  0.07150000  0.38360000  0.26150000  1
  H  H5  1  0.07150000  0.61640000  0.23850000  1
  H  H6  1  0.15540000  0.23680000  0.31750000  1
  H  H7  1  0.15540000  0.76320000  0.18250000  1
  H  H8  1  0.23680000  0.15540000  0.43250000  1
  H  H9  1  0.23680000  0.84460000  0.06750000  1
  H  H10  1  0.38360000  0.07150000  0.48850000  1
  H  H11  1  0.38360000  0.92850000  0.01150000  1
  H  H12  1  0.61640000  0.07150000  0.51150000  1
  H  H13  1  0.61640000  0.92850000  0.98850000  1
  H  H14  1  0.76320000  0.15540000  0.56750000  1
  H  H15  1  0.76320000  0.84460000  0.93250000  1
  H  H16  1  0.84460000  0.23680000  0.68250000  1
  H  H17  1  0.84460000  0.76320000  0.81750000  1
  H  H18  1  0.92850000  0.38360000  0.73850000  1
  H  H19  1  0.92850000  0.61640000  0.76150000  1
  C  C20  1  0.09250000  0.44290000  0.09130000  1
  C  C21  1  0.09250000  0.55710000  0.40870000  1
  C  C22  1  0.11500000  0.34570000  0.22930000  1
  C  C23  1  0.11500000  0.65430000  0.27070000  1
  C  C24  1  0.13660000  0.36440000  0.14640000  1
  C  C25  1  0.13660000  0.63560000  0.35360000  1
  C  C26  1  0.14320000  0.29980000  0.53330000  1
  C  C27  1  0.14320000  0.70020000  0.96670000  1
  C  C28  1  0.16520000  0.26250000  0.26270000  1
  C  C29  1  0.16520000  0.73750000  0.23730000  1
  C  C30  1  0.22490000  0.23000000  0.54640000  1
  C  C31  1  0.22490000  0.77000000  0.95360000  1
  C  C32  1  0.23000000  0.22490000  0.20360000  1
  C  C33  1  0.23000000  0.77510000  0.29640000  1
  C  C34  1  0.26250000  0.16520000  0.48730000  1
  C  C35  1  0.26250000  0.83480000  0.01270000  1
  C  C36  1  0.29980000  0.14320000  0.21670000  1
  C  C37  1  0.29980000  0.85680000  0.28330000  1
  C  C38  1  0.34570000  0.11500000  0.52070000  1
  C  C39  1  0.34570000  0.88500000  0.97930000  1
  C  C40  1  0.36440000  0.13660000  0.60360000  1
  C  C41  1  0.36440000  0.86340000  0.89640000  1
  C  C42  1  0.44290000  0.09250000  0.65870000  1
  C  C43  1  0.44290000  0.90750000  0.84130000  1
  C  C44  1  0.55710000  0.09250000  0.34130000  1
  C  C45  1  0.55710000  0.90750000  0.15870000  1
  C  C46  1  0.63560000  0.13660000  0.39640000  1
  C  C47  1  0.63560000  0.86340000  0.10360000  1
  C  C48  1  0.65430000  0.11500000  0.47930000  1
  C  C49  1  0.65430000  0.88500000  0.02070000  1
  C  C50  1  0.70020000  0.14320000  0.78330000  1
  C  C51  1  0.70020000  0.85680000  0.71670000  1
  C  C52  1  0.73750000  0.16520000  0.51270000  1
  C  C53  1  0.73750000  0.83480000  0.98730000  1
  C  C54  1  0.77000000  0.22490000  0.79640000  1
  C  C55  1  0.77000000  0.77510000  0.70360000  1
  C  C56  1  0.77510000  0.23000000  0.45360000  1
  C  C57  1  0.77510000  0.77000000  0.04640000  1
  C  C58  1  0.83480000  0.26250000  0.73730000  1
  C  C59  1  0.83480000  0.73750000  0.76270000  1
  C  C60  1  0.85680000  0.29980000  0.46670000  1
  C  C61  1  0.85680000  0.70020000  0.03330000  1
  C  C62  1  0.86340000  0.36440000  0.85360000  1
  C  C63  1  0.86340000  0.63560000  0.64640000  1
  C  C64  1  0.88500000  0.34570000  0.77070000  1
  C  C65  1  0.88500000  0.65430000  0.72930000  1
  C  C66  1  0.90750000  0.44290000  0.90870000  1
  C  C67  1  0.90750000  0.55710000  0.59130000  1
  S  S68  1  0.22330000  0.28496000  0.10754000  1
  S  S69  1  0.22330000  0.71504000  0.39246000  1
  S  S70  1  0.28496000  0.22330000  0.64246000  1
  S  S71  1  0.28496000  0.77670000  0.85754000  1
  S  S72  1  0.71504000  0.22330000  0.35754000  1
  S  S73  1  0.71504000  0.77670000  0.14246000  1
  S  S74  1  0.77670000  0.28496000  0.89246000  1
  S  S75  1  0.77670000  0.71504000  0.60754000  1
  O  O76  1  0.02620000  0.49700000  0.12330000  1
  O  O77  1  0.02620000  0.50300000  0.37670000  1
  O  O78  1  0.10520000  0.30670000  0.45970000  1
  O  O79  1  0.10520000  0.69330000  0.04030000  1
  O  O80  1  0.11490000  0.35290000  0.59400000  1
  O  O81  1  0.11490000  0.64710000  0.90600000  1
  O  O82  1  0.12070000  0.45310000  0.01550000  1
  O  O83  1  0.12070000  0.54690000  0.48450000  1
  O  O84  1  0.30670000  0.10520000  0.29030000  1
  O  O85  1  0.30670000  0.89480000  0.20970000  1
  O  O86  1  0.35290000  0.11490000  0.15600000  1
  O  O87  1  0.35290000  0.88510000  0.34400000  1
  O  O88  1  0.45310000  0.12070000  0.73450000  1
  O  O89  1  0.45310000  0.87930000  0.76550000  1
  O  O90  1  0.49700000  0.02620000  0.62670000  1
  O  O91  1  0.49700000  0.97380000  0.87330000  1
  O  O92  1  0.50300000  0.02620000  0.37330000  1
  O  O93  1  0.50300000  0.97380000  0.12670000  1
  O  O94  1  0.54690000  0.12070000  0.26550000  1
  O  O95  1  0.54690000  0.87930000  0.23450000  1
  O  O96  1  0.64710000  0.11490000  0.84400000  1
  O  O97  1  0.64710000  0.88510000  0.65600000  1
  O  O98  1  0.69330000  0.10520000  0.70970000  1
  O  O99  1  0.69330000  0.89480000  0.79030000  1
  O  O100  1  0.87930000  0.45310000  0.98450000  1
  O  O101  1  0.87930000  0.54690000  0.51550000  1
  O  O102  1  0.88510000  0.35290000  0.40600000  1
  O  O103  1  0.88510000  0.64710000  0.09400000  1
  O  O104  1  0.89480000  0.30670000  0.54030000  1
  O  O105  1  0.89480000  0.69330000  0.95970000  1
  O  O106  1  0.97380000  0.49700000  0.87670000  1
  O  O107  1  0.97380000  0.50300000  0.62330000  1
