# generated using pymatgen
data_Dy2H13C28O13
_symmetry_space_group_name_H-M   'P 1'
_cell_length_a   14.48210000
_cell_length_b   16.71370000
_cell_length_c   19.21300000
_cell_angle_alpha   90.00000000
_cell_angle_beta   108.03900000
_cell_angle_gamma   90.00000000
_symmetry_Int_Tables_number   1
_chemical_formula_structural   Dy2H13C28O13
_chemical_formula_sum   'Dy8 H52 C112 O52'
_cell_volume   4421.90584067
_cell_formula_units_Z   4
loop_
 _symmetry_equiv_pos_site_id
 _symmetry_equiv_pos_as_xyz
  1  'x, y, z'
loop_
 _atom_site_type_symbol
 _atom_site_label
 _atom_site_symmetry_multiplicity
 _atom_site_fract_x
 _atom_site_fract_y
 _atom_site_fract_z
 _atom_site_occupancy
  Dy  Dy0  1  0.07739000  0.36380000  0.77104000  1
  Dy  Dy1  1  0.17641000  0.15630000  0.16881000  1
  Dy  Dy2  1  0.32359000  0.65630000  0.33119000  1
  Dy  Dy3  1  0.42261000  0.86380000  0.72896000  1
  Dy  Dy4  1  0.57739000  0.13620000  0.27104000  1
  Dy  Dy5  1  0.67641000  0.34370000  0.66881000  1
  Dy  Dy6  1  0.82359000  0.84370000  0.83119000  1
  Dy  Dy7  1  0.92261000  0.63620000  0.22896000  1
  H  H8  1  0.00870000  0.30550000  0.93800000  1
  H  H9  1  0.01330000  0.91680000  0.21470000  1
  H  H10  1  0.03670000  0.30550000  0.57670000  1
  H  H11  1  0.05710000  0.07730000  0.37760000  1
  H  H12  1  0.05850000  0.13610000  0.60600000  1
  H  H13  1  0.07860000  0.80830000  0.61300000  1
  H  H14  1  0.08860000  0.53750000  0.91130000  1
  H  H15  1  0.10670000  0.60540000  0.86060000  1
  H  H16  1  0.13490000  0.50390000  0.78270000  1
  H  H17  1  0.16080000  0.77900000  0.94970000  1
  H  H18  1  0.19460000  0.55710000  0.91150000  1
  H  H19  1  0.21750000  0.16910000  0.35750000  1
  H  H20  1  0.24550000  0.75490000  0.48480000  1
  H  H21  1  0.25450000  0.25490000  0.01520000  1
  H  H22  1  0.28250000  0.66910000  0.14250000  1
  H  H23  1  0.30540000  0.05710000  0.58850000  1
  H  H24  1  0.33920000  0.27900000  0.55030000  1
  H  H25  1  0.36510000  0.00390000  0.71730000  1
  H  H26  1  0.39330000  0.10540000  0.63940000  1
  H  H27  1  0.41140000  0.03750000  0.58870000  1
  H  H28  1  0.42140000  0.30830000  0.88700000  1
  H  H29  1  0.44150000  0.63610000  0.89400000  1
  H  H30  1  0.44290000  0.57730000  0.12240000  1
  H  H31  1  0.46330000  0.80550000  0.92330000  1
  H  H32  1  0.48670000  0.41680000  0.28530000  1
  H  H33  1  0.49130000  0.80550000  0.56200000  1
  H  H34  1  0.50870000  0.19450000  0.43800000  1
  H  H35  1  0.51330000  0.58320000  0.71470000  1
  H  H36  1  0.53670000  0.19450000  0.07670000  1
  H  H37  1  0.55710000  0.42270000  0.87760000  1
  H  H38  1  0.55850000  0.36390000  0.10600000  1
  H  H39  1  0.57860000  0.69170000  0.11300000  1
  H  H40  1  0.58860000  0.96250000  0.41130000  1
  H  H41  1  0.60670000  0.89460000  0.36060000  1
  H  H42  1  0.63490000  0.99610000  0.28270000  1
  H  H43  1  0.66080000  0.72100000  0.44970000  1
  H  H44  1  0.69460000  0.94290000  0.41150000  1
  H  H45  1  0.71750000  0.33090000  0.85750000  1
  H  H46  1  0.74550000  0.74510000  0.98480000  1
  H  H47  1  0.75450000  0.24510000  0.51520000  1
  H  H48  1  0.78250000  0.83090000  0.64250000  1
  H  H49  1  0.80540000  0.44290000  0.08850000  1
  H  H50  1  0.83920000  0.22100000  0.05030000  1
  H  H51  1  0.86510000  0.49610000  0.21730000  1
  H  H52  1  0.89330000  0.39460000  0.13940000  1
  H  H53  1  0.91140000  0.46250000  0.08870000  1
  H  H54  1  0.92140000  0.19170000  0.38700000  1
  H  H55  1  0.94150000  0.86390000  0.39400000  1
  H  H56  1  0.94290000  0.92270000  0.62240000  1
  H  H57  1  0.96330000  0.69450000  0.42330000  1
  H  H58  1  0.98670000  0.08320000  0.78530000  1
  H  H59  1  0.99130000  0.69450000  0.06200000  1
  C  C60  1  0.00000000  0.00850000  0.52930000  1
  C  C61  1  0.00000000  0.99150000  0.47070000  1
  C  C62  1  0.00080000  0.97350000  0.39830000  1
  C  C63  1  0.00430000  0.75070000  0.52280000  1
  C  C64  1  0.01040000  0.93110000  0.26070000  1
  C  C65  1  0.01610000  0.71760000  0.45820000  1
  C  C66  1  0.02190000  0.22430000  0.05990000  1
  C  C67  1  0.02640000  0.12270000  0.70090000  1
  C  C68  1  0.03210000  0.10060000  0.63190000  1
  C  C69  1  0.03690000  0.02700000  0.35820000  1
  C  C70  1  0.04380000  0.00710000  0.28880000  1
  C  C71  1  0.05280000  0.70180000  0.05740000  1
  C  C72  1  0.05290000  0.20260000  0.73370000  1
  C  C73  1  0.06120000  0.73970000  0.99530000  1
  C  C74  1  0.08230000  0.06220000  0.24280000  1
  C  C75  1  0.08470000  0.78540000  0.57050000  1
  C  C76  1  0.09140000  0.24780000  0.46940000  1
  C  C77  1  0.10570000  0.71940000  0.44680000  1
  C  C78  1  0.11790000  0.68710000  0.37870000  1
  C  C79  1  0.12710000  0.62750000  0.17620000  1
  C  C80  1  0.12790000  0.55390000  0.88170000  1
  C  C81  1  0.13460000  0.67420000  0.11380000  1
  C  C82  1  0.15360000  0.75200000  0.99000000  1
  C  C83  1  0.16840000  0.23860000  0.46330000  1
  C  C84  1  0.17490000  0.78840000  0.55920000  1
  C  C85  1  0.18630000  0.75390000  0.49420000  1
  C  C86  1  0.22720000  0.68640000  0.10620000  1
  C  C87  1  0.23520000  0.72470000  0.04390000  1
  C  C88  1  0.24410000  0.32300000  0.88560000  1
  C  C89  1  0.25590000  0.82300000  0.61440000  1
  C  C90  1  0.26480000  0.22470000  0.45610000  1
  C  C91  1  0.27280000  0.18640000  0.39380000  1
  C  C92  1  0.31370000  0.25390000  0.00580000  1
  C  C93  1  0.32510000  0.28840000  0.94080000  1
  C  C94  1  0.33160000  0.73860000  0.03670000  1
  C  C95  1  0.34640000  0.25200000  0.51000000  1
  C  C96  1  0.36540000  0.17420000  0.38620000  1
  C  C97  1  0.37210000  0.05390000  0.61830000  1
  C  C98  1  0.37290000  0.12750000  0.32380000  1
  C  C99  1  0.38210000  0.18710000  0.12130000  1
  C  C100  1  0.39430000  0.21940000  0.05320000  1
  C  C101  1  0.40860000  0.74780000  0.03060000  1
  C  C102  1  0.41530000  0.28540000  0.92950000  1
  C  C103  1  0.41770000  0.56220000  0.25720000  1
  C  C104  1  0.43880000  0.23970000  0.50470000  1
  C  C105  1  0.44710000  0.70260000  0.76630000  1
  C  C106  1  0.44720000  0.20180000  0.44260000  1
  C  C107  1  0.45620000  0.50710000  0.21120000  1
  C  C108  1  0.46310000  0.52700000  0.14180000  1
  C  C109  1  0.46790000  0.60060000  0.86810000  1
  C  C110  1  0.47360000  0.62270000  0.79910000  1
  C  C111  1  0.47810000  0.72430000  0.44010000  1
  C  C112  1  0.48390000  0.21760000  0.04180000  1
  C  C113  1  0.48960000  0.43110000  0.23930000  1
  C  C114  1  0.49570000  0.25070000  0.97720000  1
  C  C115  1  0.49920000  0.47350000  0.10170000  1
  C  C116  1  0.50000000  0.49150000  0.02930000  1
  C  C117  1  0.50000000  0.50850000  0.97070000  1
  C  C118  1  0.50080000  0.52650000  0.89830000  1
  C  C119  1  0.50430000  0.74930000  0.02280000  1
  C  C120  1  0.51040000  0.56890000  0.76070000  1
  C  C121  1  0.51610000  0.78240000  0.95820000  1
  C  C122  1  0.52190000  0.27570000  0.55990000  1
  C  C123  1  0.52640000  0.37730000  0.20090000  1
  C  C124  1  0.53210000  0.39940000  0.13190000  1
  C  C125  1  0.53690000  0.47300000  0.85820000  1
  C  C126  1  0.54380000  0.49290000  0.78880000  1
  C  C127  1  0.55280000  0.79820000  0.55740000  1
  C  C128  1  0.55290000  0.29740000  0.23370000  1
  C  C129  1  0.56120000  0.76030000  0.49530000  1
  C  C130  1  0.58230000  0.43780000  0.74280000  1
  C  C131  1  0.58470000  0.71460000  0.07050000  1
  C  C132  1  0.59140000  0.25220000  0.96940000  1
  C  C133  1  0.60570000  0.78060000  0.94680000  1
  C  C134  1  0.61790000  0.81290000  0.87870000  1
  C  C135  1  0.62710000  0.87250000  0.67620000  1
  C  C136  1  0.62790000  0.94610000  0.38170000  1
  C  C137  1  0.63460000  0.82580000  0.61380000  1
  C  C138  1  0.65360000  0.74800000  0.49000000  1
  C  C139  1  0.66840000  0.26140000  0.96330000  1
  C  C140  1  0.67490000  0.71160000  0.05920000  1
  C  C141  1  0.68630000  0.74610000  0.99420000  1
  C  C142  1  0.72720000  0.81360000  0.60620000  1
  C  C143  1  0.73520000  0.77530000  0.54390000  1
  C  C144  1  0.74410000  0.17700000  0.38560000  1
  C  C145  1  0.75590000  0.67700000  0.11440000  1
  C  C146  1  0.76480000  0.27530000  0.95610000  1
  C  C147  1  0.77280000  0.31360000  0.89380000  1
  C  C148  1  0.81370000  0.24610000  0.50580000  1
  C  C149  1  0.82510000  0.21160000  0.44080000  1
  C  C150  1  0.83160000  0.76140000  0.53670000  1
  C  C151  1  0.84640000  0.24800000  0.01000000  1
  C  C152  1  0.86540000  0.32580000  0.88620000  1
  C  C153  1  0.87210000  0.44610000  0.11830000  1
  C  C154  1  0.87290000  0.37250000  0.82380000  1
  C  C155  1  0.88210000  0.31290000  0.62130000  1
  C  C156  1  0.89430000  0.28060000  0.55320000  1
  C  C157  1  0.90860000  0.75220000  0.53060000  1
  C  C158  1  0.91530000  0.21460000  0.42950000  1
  C  C159  1  0.91770000  0.93780000  0.75720000  1
  C  C160  1  0.93880000  0.26030000  0.00470000  1
  C  C161  1  0.94710000  0.79740000  0.26630000  1
  C  C162  1  0.94720000  0.29820000  0.94260000  1
  C  C163  1  0.95620000  0.99290000  0.71120000  1
  C  C164  1  0.96310000  0.97300000  0.64180000  1
  C  C165  1  0.96790000  0.89940000  0.36810000  1
  C  C166  1  0.97360000  0.87730000  0.29910000  1
  C  C167  1  0.97810000  0.77570000  0.94010000  1
  C  C168  1  0.98390000  0.28240000  0.54180000  1
  C  C169  1  0.98960000  0.06890000  0.73930000  1
  C  C170  1  0.99570000  0.24930000  0.47720000  1
  C  C171  1  0.99920000  0.02650000  0.60170000  1
  O  O172  1  0.00640000  0.18090000  0.10610000  1
  O  O173  1  0.02330000  0.22950000  0.77930000  1
  O  O174  1  0.04350000  0.61120000  0.17920000  1
  O  O175  1  0.05050000  0.63900000  0.33750000  1
  O  O176  1  0.09150000  0.13520000  0.26145000  1
  O  O177  1  0.10620000  0.24230000  0.06140000  1
  O  O178  1  0.11540000  0.03340000  0.19580000  1
  O  O179  1  0.11540000  0.24520000  0.71010000  1
  O  O180  1  0.11800000  0.49250000  0.82020000  1
  O  O181  1  0.16700000  0.32560000  0.89770000  1
  O  O182  1  0.19250000  0.70550000  0.35920000  1
  O  O183  1  0.20060000  0.61450000  0.22693000  1
  O  O184  1  0.24520000  0.34830000  0.82700000  1
  O  O185  1  0.25480000  0.84830000  0.67300000  1
  O  O186  1  0.29940000  0.11450000  0.27307000  1
  O  O187  1  0.30750000  0.20550000  0.14080000  1
  O  O188  1  0.33300000  0.82560000  0.60230000  1
  O  O189  1  0.38200000  0.99250000  0.67980000  1
  O  O190  1  0.38460000  0.53340000  0.30420000  1
  O  O191  1  0.38460000  0.74520000  0.78990000  1
  O  O192  1  0.39380000  0.74230000  0.43860000  1
  O  O193  1  0.40850000  0.63520000  0.23855000  1
  O  O194  1  0.44950000  0.13900000  0.16250000  1
  O  O195  1  0.45650000  0.11120000  0.32080000  1
  O  O196  1  0.47670000  0.72950000  0.72070000  1
  O  O197  1  0.49360000  0.68090000  0.39390000  1
  O  O198  1  0.50640000  0.31910000  0.60610000  1
  O  O199  1  0.52330000  0.27050000  0.27930000  1
  O  O200  1  0.54350000  0.88880000  0.67920000  1
  O  O201  1  0.55050000  0.86100000  0.83750000  1
  O  O202  1  0.59150000  0.36480000  0.76145000  1
  O  O203  1  0.60620000  0.25770000  0.56140000  1
  O  O204  1  0.61540000  0.25480000  0.21010000  1
  O  O205  1  0.61540000  0.46660000  0.69580000  1
  O  O206  1  0.61800000  0.00750000  0.32020000  1
  O  O207  1  0.66700000  0.17440000  0.39770000  1
  O  O208  1  0.69250000  0.79450000  0.85920000  1
  O  O209  1  0.70060000  0.88550000  0.72693000  1
  O  O210  1  0.74520000  0.15170000  0.32700000  1
  O  O211  1  0.75480000  0.65170000  0.17300000  1
  O  O212  1  0.79940000  0.38550000  0.77307000  1
  O  O213  1  0.80750000  0.29450000  0.64080000  1
  O  O214  1  0.83300000  0.67440000  0.10230000  1
  O  O215  1  0.88200000  0.50750000  0.17980000  1
  O  O216  1  0.88460000  0.75480000  0.28990000  1
  O  O217  1  0.88460000  0.96660000  0.80420000  1
  O  O218  1  0.89380000  0.75770000  0.93860000  1
  O  O219  1  0.90850000  0.86480000  0.73855000  1
  O  O220  1  0.94950000  0.36100000  0.66250000  1
  O  O221  1  0.95650000  0.38880000  0.82080000  1
  O  O222  1  0.97670000  0.77050000  0.22070000  1
  O  O223  1  0.99360000  0.81910000  0.89390000  1
