# generated using pymatgen
data_InH4C12(SO4)2
_symmetry_space_group_name_H-M   'P 1'
_cell_length_a   13.56500000
_cell_length_b   13.56500000
_cell_length_c   15.50300000
_cell_angle_alpha   90.00000000
_cell_angle_beta   90.00000000
_cell_angle_gamma   90.00000000
_symmetry_Int_Tables_number   1
_chemical_formula_structural   InH4C12(SO4)2
_chemical_formula_sum   'In4 H16 C48 S8 O32'
_cell_volume   2852.69501517
_cell_formula_units_Z   4
loop_
 _symmetry_equiv_pos_site_id
 _symmetry_equiv_pos_as_xyz
  1  'x, y, z'
loop_
 _atom_site_type_symbol
 _atom_site_label
 _atom_site_symmetry_multiplicity
 _atom_site_fract_x
 _atom_site_fract_y
 _atom_site_fract_z
 _atom_site_occupancy
  In  In0  1  0.00000000  0.42366000  0.50000000  1
  In  In1  1  0.00000000  0.57634000  0.00000000  1
  In  In2  1  0.42366000  0.00000000  0.25000000  1
  In  In3  1  0.57634000  0.00000000  0.75000000  1
  H  H4  1  0.07030000  0.38340000  0.26150000  1
  H  H5  1  0.07030000  0.61660000  0.23850000  1
  H  H6  1  0.15810000  0.23840000  0.31780000  1
  H  H7  1  0.15810000  0.76160000  0.18220000  1
  H  H8  1  0.23840000  0.15810000  0.43220000  1
  H  H9  1  0.23840000  0.84190000  0.06780000  1
  H  H10  1  0.38340000  0.07030000  0.48850000  1
  H  H11  1  0.38340000  0.92970000  0.01150000  1
  H  H12  1  0.61660000  0.07030000  0.51150000  1
  H  H13  1  0.61660000  0.92970000  0.98850000  1
  H  H14  1  0.76160000  0.15810000  0.56780000  1
  H  H15  1  0.76160000  0.84190000  0.93220000  1
  H  H16  1  0.84190000  0.23840000  0.68220000  1
  H  H17  1  0.84190000  0.76160000  0.81780000  1
  H  H18  1  0.92970000  0.38340000  0.73850000  1
  H  H19  1  0.92970000  0.61660000  0.76150000  1
  C  C20  1  0.09320000  0.44300000  0.09030000  1
  C  C21  1  0.09320000  0.55700000  0.40970000  1
  C  C22  1  0.11470000  0.34620000  0.22950000  1
  C  C23  1  0.11470000  0.65380000  0.27050000  1
  C  C24  1  0.13710000  0.36450000  0.14660000  1
  C  C25  1  0.13710000  0.63550000  0.35340000  1
  C  C26  1  0.14390000  0.29840000  0.53330000  1
  C  C27  1  0.14390000  0.70160000  0.96670000  1
  C  C28  1  0.16680000  0.26350000  0.26250000  1
  C  C29  1  0.16680000  0.73650000  0.23750000  1
  C  C30  1  0.22550000  0.23040000  0.54560000  1
  C  C31  1  0.22550000  0.76960000  0.95440000  1
  C  C32  1  0.23040000  0.22550000  0.20440000  1
  C  C33  1  0.23040000  0.77450000  0.29560000  1
  C  C34  1  0.26350000  0.16680000  0.48750000  1
  C  C35  1  0.26350000  0.83320000  0.01250000  1
  C  C36  1  0.29840000  0.14390000  0.21670000  1
  C  C37  1  0.29840000  0.85610000  0.28330000  1
  C  C38  1  0.34620000  0.11470000  0.52050000  1
  C  C39  1  0.34620000  0.88530000  0.97950000  1
  C  C40  1  0.36450000  0.13710000  0.60340000  1
  C  C41  1  0.36450000  0.86290000  0.89660000  1
  C  C42  1  0.44300000  0.09320000  0.65970000  1
  C  C43  1  0.44300000  0.90680000  0.84030000  1
  C  C44  1  0.55700000  0.09320000  0.34030000  1
  C  C45  1  0.55700000  0.90680000  0.15970000  1
  C  C46  1  0.63550000  0.13710000  0.39660000  1
  C  C47  1  0.63550000  0.86290000  0.10340000  1
  C  C48  1  0.65380000  0.11470000  0.47950000  1
  C  C49  1  0.65380000  0.88530000  0.02050000  1
  C  C50  1  0.70160000  0.14390000  0.78330000  1
  C  C51  1  0.70160000  0.85610000  0.71670000  1
  C  C52  1  0.73650000  0.16680000  0.51250000  1
  C  C53  1  0.73650000  0.83320000  0.98750000  1
  C  C54  1  0.76960000  0.22550000  0.79560000  1
  C  C55  1  0.76960000  0.77450000  0.70440000  1
  C  C56  1  0.77450000  0.23040000  0.45440000  1
  C  C57  1  0.77450000  0.76960000  0.04560000  1
  C  C58  1  0.83320000  0.26350000  0.73750000  1
  C  C59  1  0.83320000  0.73650000  0.76250000  1
  C  C60  1  0.85610000  0.29840000  0.46670000  1
  C  C61  1  0.85610000  0.70160000  0.03330000  1
  C  C62  1  0.86290000  0.36450000  0.85340000  1
  C  C63  1  0.86290000  0.63550000  0.64660000  1
  C  C64  1  0.88530000  0.34620000  0.77050000  1
  C  C65  1  0.88530000  0.65380000  0.72950000  1
  C  C66  1  0.90680000  0.44300000  0.90970000  1
  C  C67  1  0.90680000  0.55700000  0.59030000  1
  S  S68  1  0.22329000  0.28493000  0.10762000  1
  S  S69  1  0.22329000  0.71507000  0.39238000  1
  S  S70  1  0.28493000  0.22329000  0.64238000  1
  S  S71  1  0.28493000  0.77671000  0.85762000  1
  S  S72  1  0.71507000  0.22329000  0.35762000  1
  S  S73  1  0.71507000  0.77671000  0.14238000  1
  S  S74  1  0.77671000  0.28493000  0.89238000  1
  S  S75  1  0.77671000  0.71507000  0.60762000  1
  O  O76  1  0.02630000  0.49780000  0.12280000  1
  O  O77  1  0.02630000  0.50220000  0.37720000  1
  O  O78  1  0.10630000  0.30710000  0.46000000  1
  O  O79  1  0.10630000  0.69290000  0.04000000  1
  O  O80  1  0.11390000  0.35200000  0.59440000  1
  O  O81  1  0.11390000  0.64800000  0.90560000  1
  O  O82  1  0.12090000  0.45260000  0.01530000  1
  O  O83  1  0.12090000  0.54740000  0.48470000  1
  O  O84  1  0.30710000  0.10630000  0.29000000  1
  O  O85  1  0.30710000  0.89370000  0.21000000  1
  O  O86  1  0.35200000  0.11390000  0.15560000  1
  O  O87  1  0.35200000  0.88610000  0.34440000  1
  O  O88  1  0.45260000  0.12090000  0.73470000  1
  O  O89  1  0.45260000  0.87910000  0.76530000  1
  O  O90  1  0.49780000  0.02630000  0.62720000  1
  O  O91  1  0.49780000  0.97370000  0.87280000  1
  O  O92  1  0.50220000  0.02630000  0.37280000  1
  O  O93  1  0.50220000  0.97370000  0.12720000  1
  O  O94  1  0.54740000  0.12090000  0.26530000  1
  O  O95  1  0.54740000  0.87910000  0.23470000  1
  O  O96  1  0.64800000  0.11390000  0.84440000  1
  O  O97  1  0.64800000  0.88610000  0.65560000  1
  O  O98  1  0.69290000  0.10630000  0.71000000  1
  O  O99  1  0.69290000  0.89370000  0.79000000  1
  O  O100  1  0.87910000  0.45260000  0.98470000  1
  O  O101  1  0.87910000  0.54740000  0.51530000  1
  O  O102  1  0.88610000  0.35200000  0.40560000  1
  O  O103  1  0.88610000  0.64800000  0.09440000  1
  O  O104  1  0.89370000  0.30710000  0.54000000  1
  O  O105  1  0.89370000  0.69290000  0.96000000  1
  O  O106  1  0.97370000  0.49780000  0.87720000  1
  O  O107  1  0.97370000  0.50220000  0.62280000  1
