# generated using pymatgen
data_EuH3C9(NO2)3
_symmetry_space_group_name_H-M   'P 1'
_cell_length_a   6.05200000
_cell_length_b   10.49940000
_cell_length_c   13.45470000
_cell_angle_alpha   71.63000000
_cell_angle_beta   89.25400000
_cell_angle_gamma   89.10100000
_symmetry_Int_Tables_number   1
_chemical_formula_structural   EuH3C9(NO2)3
_chemical_formula_sum   'Eu2 H6 C18 N6 O12'
_cell_volume   811.24732546
_cell_formula_units_Z   2
loop_
 _symmetry_equiv_pos_site_id
 _symmetry_equiv_pos_as_xyz
  1  'x, y, z'
loop_
 _atom_site_type_symbol
 _atom_site_label
 _atom_site_symmetry_multiplicity
 _atom_site_fract_x
 _atom_site_fract_y
 _atom_site_fract_z
 _atom_site_occupancy
  Eu  Eu0  1  0.25043000  0.65949000  0.70707000  1
  Eu  Eu1  1  0.74957000  0.34051000  0.29293000  1
  H  H2  1  0.18540000  0.08870000  0.34750000  1
  H  H3  1  0.29950000  0.53440000  0.13230000  1
  H  H4  1  0.35330000  0.57270000  0.47100000  1
  H  H5  1  0.64670000  0.42730000  0.52900000  1
  H  H6  1  0.70050000  0.46560000  0.86770000  1
  H  H7  1  0.81460000  0.91130000  0.65250000  1
  C  C8  1  0.10640000  0.05390000  0.40970000  1
  C  C9  1  0.11000000  0.65980000  0.94720000  1
  C  C10  1  0.11650000  0.47070000  0.42540000  1
  C  C11  1  0.18650000  0.93930000  0.48520000  1
  C  C12  1  0.20820000  0.54370000  0.48410000  1
  C  C13  1  0.24720000  0.43060000  0.34290000  1
  C  C14  1  0.31740000  0.57440000  0.97590000  1
  C  C15  1  0.38440000  0.51880000  0.07910000  1
  C  C16  1  0.39860000  0.86910000  0.47070000  1
  C  C17  1  0.60140000  0.13090000  0.52930000  1
  C  C18  1  0.61560000  0.48120000  0.92090000  1
  C  C19  1  0.68260000  0.42560000  0.02410000  1
  C  C20  1  0.75280000  0.56940000  0.65710000  1
  C  C21  1  0.79180000  0.45630000  0.51590000  1
  C  C22  1  0.81350000  0.06070000  0.51480000  1
  C  C23  1  0.88350000  0.52930000  0.57460000  1
  C  C24  1  0.89000000  0.34020000  0.05280000  1
  C  C25  1  0.89360000  0.94610000  0.59030000  1
  N  N26  1  0.08020000  0.88500000  0.57600000  1
  N  N27  1  0.09140000  0.57300000  0.55900000  1
  N  N28  1  0.43330000  0.55600000  0.89660000  1
  N  N29  1  0.56670000  0.44400000  0.10340000  1
  N  N30  1  0.90860000  0.42700000  0.44100000  1
  N  N31  1  0.91980000  0.11500000  0.42400000  1
  O  O32  1  0.00110000  0.31800000  0.98270000  1
  O  O33  1  0.06530000  0.70190000  0.85140000  1
  O  O34  1  0.14830000  0.35830000  0.30050000  1
  O  O35  1  0.44140000  0.47240000  0.32370000  1
  O  O36  1  0.45080000  0.76870000  0.54640000  1
  O  O37  1  0.49490000  0.08570000  0.61180000  1
  O  O38  1  0.50510000  0.91430000  0.38820000  1
  O  O39  1  0.54920000  0.23130000  0.45360000  1
  O  O40  1  0.55860000  0.52760000  0.67630000  1
  O  O41  1  0.85170000  0.64170000  0.69950000  1
  O  O42  1  0.93470000  0.29810000  0.14860000  1
  O  O43  1  0.99890000  0.68200000  0.01730000  1
