# generated using pymatgen
data_CdNiH10(C2N)6
_symmetry_space_group_name_H-M   'P 1'
_cell_length_a   6.96000000
_cell_length_b   7.71800000
_cell_length_c   9.69300000
_cell_angle_alpha   90.61000000
_cell_angle_beta   91.72000000
_cell_angle_gamma   90.17000000
_symmetry_Int_Tables_number   1
_chemical_formula_structural   CdNiH10(C2N)6
_chemical_formula_sum   'Cd1 Ni1 H10 C12 N6'
_cell_volume   520.41468954
_cell_formula_units_Z   1
loop_
 _symmetry_equiv_pos_site_id
 _symmetry_equiv_pos_as_xyz
  1  'x, y, z'
loop_
 _atom_site_type_symbol
 _atom_site_label
 _atom_site_symmetry_multiplicity
 _atom_site_fract_x
 _atom_site_fract_y
 _atom_site_fract_z
 _atom_site_occupancy
  Cd  Cd0  1  0.00000000  0.00000000  0.00000000  1
  Ni  Ni1  1  0.50000000  0.50000000  0.00000000  1
  H  H2  1  0.04100000  0.08945000  0.71974000  1
  H  H3  1  0.18828000  0.15192000  0.51020000  1
  H  H4  1  0.33699000  0.19076000  0.79338000  1
  H  H5  1  0.34669000  0.11192000  0.28713000  1
  H  H6  1  0.40481000  0.97528000  0.84287000  1
  H  H7  1  0.59519000  0.02472000  0.15713000  1
  H  H8  1  0.65331000  0.88808000  0.71287000  1
  H  H9  1  0.66301000  0.80924000  0.20662000  1
  H  H10  1  0.81172000  0.84808000  0.48980000  1
  H  H11  1  0.95900000  0.91055000  0.28026000  1
  C  C12  1  0.31040000  0.33970000  0.04180000  1
  C  C13  1  0.32290000  0.05230000  0.76670000  1
  C  C14  1  0.32450000  0.08570000  0.50650000  1
  C  C15  1  0.33560000  0.68270000  0.03260000  1
  C  C16  1  0.41120000  0.02350000  0.62660000  1
  C  C17  1  0.41420000  0.06240000  0.38040000  1
  C  C18  1  0.58580000  0.93760000  0.61960000  1
  C  C19  1  0.58880000  0.97650000  0.37340000  1
  C  C20  1  0.66440000  0.31730000  0.96740000  1
  C  C21  1  0.67550000  0.91430000  0.49350000  1
  C  C22  1  0.67710000  0.94770000  0.23330000  1
  C  C23  1  0.68960000  0.66030000  0.95820000  1
  N  N24  1  0.11840000  0.00420000  0.77470000  1
  N  N25  1  0.19830000  0.23660000  0.06300000  1
  N  N26  1  0.23690000  0.79800000  0.05130000  1
  N  N27  1  0.76310000  0.20200000  0.94870000  1
  N  N28  1  0.80170000  0.76340000  0.93700000  1
  N  N29  1  0.88160000  0.99580000  0.22530000  1
