# generated using pymatgen
data_YbH7(C5O2)3
_symmetry_space_group_name_H-M   'P 1'
_cell_length_a   14.33300000
_cell_length_b   14.64200000
_cell_length_c   14.64200000
_cell_angle_alpha   90.00000000
_cell_angle_beta   90.00000000
_cell_angle_gamma   90.00000000
_symmetry_Int_Tables_number   1
_chemical_formula_structural   YbH7(C5O2)3
_chemical_formula_sum   'Yb4 H28 C60 O24'
_cell_volume   3072.82555461
_cell_formula_units_Z   4
loop_
 _symmetry_equiv_pos_site_id
 _symmetry_equiv_pos_as_xyz
  1  'x, y, z'
loop_
 _atom_site_type_symbol
 _atom_site_label
 _atom_site_symmetry_multiplicity
 _atom_site_fract_x
 _atom_site_fract_y
 _atom_site_fract_z
 _atom_site_occupancy
  Yb  Yb0  1  0.01506000  0.63346000  0.41359000  1
  Yb  Yb1  1  0.26506000  0.58641000  0.63346000  1
  Yb  Yb2  1  0.51506000  0.36654000  0.58641000  1
  Yb  Yb3  1  0.76506000  0.41359000  0.36654000  1
  H  H4  1  0.00810000  0.51500000  0.80340000  1
  H  H5  1  0.00840000  0.22530000  0.39020000  1
  H  H6  1  0.04880000  0.94020000  0.30240000  1
  H  H7  1  0.07530000  0.09470000  0.31100000  1
  H  H8  1  0.13140000  0.90750000  0.56180000  1
  H  H9  1  0.14570000  0.44460000  0.48140000  1
  H  H10  1  0.16580000  0.06470000  0.56760000  1
  H  H11  1  0.25810000  0.19660000  0.51500000  1
  H  H12  1  0.25840000  0.60980000  0.22530000  1
  H  H13  1  0.29880000  0.69760000  0.94020000  1
  H  H14  1  0.32530000  0.68900000  0.09470000  1
  H  H15  1  0.38140000  0.43820000  0.90750000  1
  H  H16  1  0.39570000  0.51860000  0.44460000  1
  H  H17  1  0.41580000  0.43240000  0.06470000  1
  H  H18  1  0.50810000  0.48500000  0.19660000  1
  H  H19  1  0.50840000  0.77470000  0.60980000  1
  H  H20  1  0.54880000  0.05980000  0.69760000  1
  H  H21  1  0.57530000  0.90530000  0.68900000  1
  H  H22  1  0.63140000  0.09250000  0.43820000  1
  H  H23  1  0.64570000  0.55540000  0.51860000  1
  H  H24  1  0.66580000  0.93530000  0.43240000  1
  H  H25  1  0.75810000  0.80340000  0.48500000  1
  H  H26  1  0.75840000  0.39020000  0.77470000  1
  H  H27  1  0.79880000  0.30240000  0.05980000  1
  H  H28  1  0.82530000  0.31100000  0.90530000  1
  H  H29  1  0.88140000  0.56180000  0.09250000  1
  H  H30  1  0.89570000  0.48140000  0.55540000  1
  H  H31  1  0.91580000  0.56760000  0.93530000  1
  C  C32  1  0.05040000  0.54370000  0.63030000  1
  C  C33  1  0.06050000  0.25060000  0.41830000  1
  C  C34  1  0.06210000  0.81090000  0.42390000  1
  C  C35  1  0.06620000  0.34470000  0.42880000  1
  C  C36  1  0.07140000  0.96530000  0.35640000  1
  C  C37  1  0.08770000  0.05730000  0.36090000  1
  C  C38  1  0.08780000  0.90890000  0.43060000  1
  C  C39  1  0.12160000  0.94460000  0.51120000  1
  C  C40  1  0.12280000  0.09350000  0.44070000  1
  C  C41  1  0.13270000  0.19300000  0.44950000  1
  C  C42  1  0.14080000  0.03930000  0.51480000  1
  C  C43  1  0.14260000  0.38190000  0.47190000  1
  C  C44  1  0.21030000  0.23310000  0.49250000  1
  C  C45  1  0.21500000  0.32640000  0.50110000  1
  C  C46  1  0.23750000  0.60080000  0.40090000  1
  C  C47  1  0.30040000  0.36970000  0.54370000  1
  C  C48  1  0.31050000  0.58170000  0.25060000  1
  C  C49  1  0.31210000  0.57610000  0.81090000  1
  C  C50  1  0.31620000  0.57120000  0.34470000  1
  C  C51  1  0.32140000  0.64360000  0.96530000  1
  C  C52  1  0.33770000  0.63910000  0.05730000  1
  C  C53  1  0.33780000  0.56940000  0.90890000  1
  C  C54  1  0.37160000  0.48880000  0.94460000  1
  C  C55  1  0.37280000  0.55930000  0.09350000  1
  C  C56  1  0.38270000  0.55050000  0.19300000  1
  C  C57  1  0.39080000  0.48520000  0.03930000  1
  C  C58  1  0.39260000  0.52810000  0.38190000  1
  C  C59  1  0.46030000  0.50750000  0.23310000  1
  C  C60  1  0.46500000  0.49890000  0.32640000  1
  C  C61  1  0.48750000  0.59910000  0.60080000  1
  C  C62  1  0.55040000  0.45630000  0.36970000  1
  C  C63  1  0.56050000  0.74940000  0.58170000  1
  C  C64  1  0.56210000  0.18910000  0.57610000  1
  C  C65  1  0.56620000  0.65530000  0.57120000  1
  C  C66  1  0.57140000  0.03470000  0.64360000  1
  C  C67  1  0.58770000  0.94270000  0.63910000  1
  C  C68  1  0.58780000  0.09110000  0.56940000  1
  C  C69  1  0.62160000  0.05540000  0.48880000  1
  C  C70  1  0.62280000  0.90650000  0.55930000  1
  C  C71  1  0.63270000  0.80700000  0.55050000  1
  C  C72  1  0.64080000  0.96070000  0.48520000  1
  C  C73  1  0.64260000  0.61810000  0.52810000  1
  C  C74  1  0.71030000  0.76690000  0.50750000  1
  C  C75  1  0.71500000  0.67360000  0.49890000  1
  C  C76  1  0.73750000  0.39920000  0.59910000  1
  C  C77  1  0.80040000  0.63030000  0.45630000  1
  C  C78  1  0.81050000  0.41830000  0.74940000  1
  C  C79  1  0.81210000  0.42390000  0.18910000  1
  C  C80  1  0.81620000  0.42880000  0.65530000  1
  C  C81  1  0.82140000  0.35640000  0.03470000  1
  C  C82  1  0.83770000  0.36090000  0.94270000  1
  C  C83  1  0.83780000  0.43060000  0.09110000  1
  C  C84  1  0.87160000  0.51120000  0.05540000  1
  C  C85  1  0.87280000  0.44070000  0.90650000  1
  C  C86  1  0.88270000  0.44950000  0.80700000  1
  C  C87  1  0.89080000  0.51480000  0.96070000  1
  C  C88  1  0.89260000  0.47190000  0.61810000  1
  C  C89  1  0.96030000  0.49250000  0.76690000  1
  C  C90  1  0.96500000  0.50110000  0.67360000  1
  C  C91  1  0.98750000  0.40090000  0.39920000  1
  O  O92  1  0.03170000  0.77970000  0.35080000  1
  O  O93  1  0.04010000  0.57860000  0.55180000  1
  O  O94  1  0.07590000  0.76070000  0.49170000  1
  O  O95  1  0.12400000  0.54090000  0.67270000  1
  O  O96  1  0.16160000  0.61420000  0.36230000  1
  O  O97  1  0.24860000  0.60830000  0.48570000  1
  O  O98  1  0.28170000  0.64920000  0.77970000  1
  O  O99  1  0.29010000  0.44820000  0.57860000  1
  O  O100  1  0.32590000  0.50830000  0.76070000  1
  O  O101  1  0.37400000  0.32730000  0.54090000  1
  O  O102  1  0.41160000  0.63770000  0.61420000  1
  O  O103  1  0.49860000  0.51430000  0.60830000  1
  O  O104  1  0.53170000  0.22030000  0.64920000  1
  O  O105  1  0.54010000  0.42140000  0.44820000  1
  O  O106  1  0.57590000  0.23930000  0.50830000  1
  O  O107  1  0.62400000  0.45910000  0.32730000  1
  O  O108  1  0.66160000  0.38580000  0.63770000  1
  O  O109  1  0.74860000  0.39170000  0.51430000  1
  O  O110  1  0.78170000  0.35080000  0.22030000  1
  O  O111  1  0.79010000  0.55180000  0.42140000  1
  O  O112  1  0.82590000  0.49170000  0.23930000  1
  O  O113  1  0.87400000  0.67270000  0.45910000  1
  O  O114  1  0.91160000  0.36230000  0.38580000  1
  O  O115  1  0.99860000  0.48570000  0.39170000  1
