# generated using pymatgen
data_Cu3MoH16C22S3N5O
_symmetry_space_group_name_H-M   'P 1'
_cell_length_a   13.76190000
_cell_length_b   15.39490000
_cell_length_c   17.35000000
_cell_angle_alpha   98.34770000
_cell_angle_beta   90.00000000
_cell_angle_gamma   116.54900000
_symmetry_Int_Tables_number   1
_chemical_formula_structural   Cu3MoH16C22S3N5O
_chemical_formula_sum   'Cu12 Mo4 H64 C88 S12 N20 O4'
_cell_volume   3244.62424409
_cell_formula_units_Z   4
loop_
 _symmetry_equiv_pos_site_id
 _symmetry_equiv_pos_as_xyz
  1  'x, y, z'
loop_
 _atom_site_type_symbol
 _atom_site_label
 _atom_site_symmetry_multiplicity
 _atom_site_fract_x
 _atom_site_fract_y
 _atom_site_fract_z
 _atom_site_occupancy
  Cu  Cu0  1  0.09207000  0.62202000  0.87788000  1
  Cu  Cu1  1  0.27643000  0.57860000  0.26425000  1
  Cu  Cu2  1  0.29704000  0.82082000  0.76572000  1
  Cu  Cu3  1  0.30217000  0.57860000  0.76425000  1
  Cu  Cu4  1  0.47005000  0.37798000  0.62212000  1
  Cu  Cu5  1  0.47622000  0.17918000  0.73428000  1
  Cu  Cu6  1  0.52378000  0.82082000  0.26572000  1
  Cu  Cu7  1  0.52995000  0.62202000  0.37788000  1
  Cu  Cu8  1  0.69783000  0.42140000  0.23575000  1
  Cu  Cu9  1  0.70296000  0.17918000  0.23428000  1
  Cu  Cu10  1  0.72357000  0.42140000  0.73575000  1
  Cu  Cu11  1  0.90793000  0.37798000  0.12212000  1
  Mo  Mo12  1  0.31051000  0.72046000  0.87834000  1
  Mo  Mo13  1  0.40995000  0.72046000  0.37834000  1
  Mo  Mo14  1  0.59005000  0.27954000  0.62166000  1
  Mo  Mo15  1  0.68949000  0.27954000  0.12166000  1
  H  H16  1  0.05100000  0.45060000  0.72400000  1
  H  H17  1  0.05190000  0.26700000  0.17110000  1
  H  H18  1  0.05580000  0.41820000  0.38360000  1
  H  H19  1  0.06250000  0.67120000  0.72110000  1
  H  H20  1  0.06950000  0.64180000  0.38020000  1
  H  H21  1  0.08300000  0.34460000  0.03720000  1
  H  H22  1  0.09260000  0.85880000  0.39320000  1
  H  H23  1  0.12150000  0.29420000  0.91570000  1
  H  H24  1  0.13280000  0.68360000  0.17420000  1
  H  H25  1  0.13450000  0.80940000  0.27220000  1
  H  H26  1  0.14010000  0.32280000  0.29470000  1
  H  H27  1  0.16000000  0.62860000  0.05120000  1
  H  H28  1  0.16780000  0.73860000  0.47920000  1
  H  H29  1  0.16970000  0.48500000  0.48050000  1
  H  H30  1  0.17270000  0.29420000  0.41570000  1
  H  H31  1  0.18270000  0.32280000  0.79470000  1
  H  H32  1  0.21510000  0.26700000  0.67110000  1
  H  H33  1  0.23380000  0.14120000  0.10680000  1
  H  H34  1  0.26160000  0.34460000  0.53720000  1
  H  H35  1  0.27960000  0.57520000  0.59080000  1
  H  H36  1  0.28340000  0.82060000  0.58950000  1
  H  H37  1  0.29560000  0.57520000  0.09080000  1
  H  H38  1  0.31530000  0.48500000  0.98050000  1
  H  H39  1  0.32510000  0.19060000  0.22780000  1
  H  H40  1  0.36240000  0.41820000  0.88360000  1
  H  H41  1  0.39130000  0.32880000  0.77890000  1
  H  H42  1  0.39960000  0.45060000  0.22400000  1
  H  H43  1  0.42770000  0.35820000  0.11980000  1
  H  H44  1  0.42920000  0.26140000  0.02080000  1
  H  H45  1  0.44920000  0.31640000  0.32580000  1
  H  H46  1  0.46280000  0.17940000  0.91050000  1
  H  H47  1  0.46860000  0.62860000  0.55120000  1
  H  H48  1  0.53140000  0.37140000  0.44880000  1
  H  H49  1  0.53720000  0.82060000  0.08950000  1
  H  H50  1  0.55080000  0.68360000  0.67420000  1
  H  H51  1  0.57080000  0.73860000  0.97920000  1
  H  H52  1  0.57230000  0.64180000  0.88020000  1
  H  H53  1  0.60040000  0.54940000  0.77600000  1
  H  H54  1  0.60870000  0.67120000  0.22110000  1
  H  H55  1  0.63760000  0.58180000  0.11640000  1
  H  H56  1  0.67490000  0.80940000  0.77220000  1
  H  H57  1  0.68470000  0.51500000  0.01950000  1
  H  H58  1  0.70440000  0.42480000  0.90920000  1
  H  H59  1  0.71660000  0.17940000  0.41050000  1
  H  H60  1  0.72040000  0.42480000  0.40920000  1
  H  H61  1  0.73840000  0.65540000  0.46280000  1
  H  H62  1  0.76620000  0.85880000  0.89320000  1
  H  H63  1  0.78490000  0.73300000  0.32890000  1
  H  H64  1  0.81730000  0.67720000  0.20530000  1
  H  H65  1  0.82730000  0.70580000  0.58430000  1
  H  H66  1  0.83030000  0.51500000  0.51950000  1
  H  H67  1  0.83220000  0.26140000  0.52080000  1
  H  H68  1  0.84000000  0.37140000  0.94880000  1
  H  H69  1  0.85990000  0.67720000  0.70530000  1
  H  H70  1  0.86550000  0.19060000  0.72780000  1
  H  H71  1  0.86720000  0.31640000  0.82580000  1
  H  H72  1  0.87850000  0.70580000  0.08430000  1
  H  H73  1  0.90740000  0.14120000  0.60680000  1
  H  H74  1  0.91700000  0.65540000  0.96280000  1
  H  H75  1  0.93050000  0.35820000  0.61980000  1
  H  H76  1  0.93750000  0.32880000  0.27890000  1
  H  H77  1  0.94420000  0.58180000  0.61640000  1
  H  H78  1  0.94810000  0.73300000  0.82890000  1
  H  H79  1  0.94900000  0.54940000  0.27600000  1
  C  C80  1  0.00160000  0.70140000  0.14540000  1
  C  C81  1  0.00170000  0.40140000  0.61180000  1
  C  C82  1  0.01270000  0.63060000  0.60890000  1
  C  C83  1  0.02030000  0.26360000  0.77630000  1
  C  C84  1  0.03530000  0.41040000  0.53680000  1
  C  C85  1  0.03610000  0.82260000  0.35480000  1
  C  C86  1  0.03920000  0.33940000  0.99420000  1
  C  C87  1  0.04070000  0.64900000  0.53400000  1
  C  C88  1  0.04370000  0.45080000  0.18480000  1
  C  C89  1  0.06230000  0.79240000  0.28190000  1
  C  C90  1  0.06280000  0.30860000  0.92100000  1
  C  C91  1  0.07510000  0.45720000  0.67410000  1
  C  C92  1  0.08530000  0.68400000  0.67170000  1
  C  C93  1  0.08670000  0.67780000  0.13250000  1
  C  C94  1  0.10330000  0.64560000  0.05760000  1
  C  C95  1  0.10740000  0.25120000  0.18270000  1
  C  C96  1  0.12470000  0.28540000  0.75760000  1
  C  C97  1  0.14280000  0.47660000  0.52950000  1
  C  C98  1  0.14380000  0.25120000  0.68270000  1
  C  C99  1  0.14460000  0.72240000  0.52780000  1
  C  C100  1  0.16070000  0.28540000  0.25760000  1
  C  C101  1  0.20860000  0.52960000  0.59650000  1
  C  C102  1  0.21350000  0.17740000  0.14520000  1
  C  C103  1  0.21390000  0.77180000  0.59490000  1
  C  C104  1  0.24330000  0.26360000  0.27630000  1
  C  C105  1  0.24580000  0.30860000  0.42100000  1
  C  C106  1  0.26990000  0.20760000  0.21810000  1
  C  C107  1  0.30020000  0.29860000  0.35460000  1
  C  C108  1  0.30020000  0.33940000  0.49420000  1
  C  C109  1  0.32100000  0.52960000  0.09650000  1
  C  C110  1  0.33380000  0.47660000  0.02950000  1
  C  C111  1  0.37110000  0.96420000  0.75700000  1
  C  C112  1  0.37510000  0.41040000  0.03680000  1
  C  C113  1  0.38210000  0.36940000  0.89110000  1
  C  C114  1  0.38210000  0.45720000  0.17410000  1
  C  C115  1  0.39170000  0.35100000  0.96600000  1
  C  C116  1  0.39970000  0.40140000  0.11180000  1
  C  C117  1  0.40130000  0.31600000  0.82830000  1
  C  C118  1  0.40690000  0.03580000  0.74300000  1
  C  C119  1  0.40710000  0.45080000  0.68480000  1
  C  C120  1  0.40890000  0.32220000  0.36750000  1
  C  C121  1  0.42220000  0.27760000  0.97220000  1
  C  C122  1  0.44210000  0.22820000  0.90510000  1
  C  C123  1  0.45770000  0.35440000  0.44240000  1
  C  C124  1  0.54230000  0.64560000  0.55760000  1
  C  C125  1  0.55790000  0.77180000  0.09490000  1
  C  C126  1  0.57780000  0.72240000  0.02780000  1
  C  C127  1  0.59110000  0.67780000  0.63250000  1
  C  C128  1  0.59290000  0.54920000  0.31520000  1
  C  C129  1  0.59310000  0.96420000  0.25700000  1
  C  C130  1  0.59870000  0.68400000  0.17170000  1
  C  C131  1  0.60030000  0.59860000  0.88820000  1
  C  C132  1  0.60830000  0.64900000  0.03400000  1
  C  C133  1  0.61790000  0.54280000  0.82590000  1
  C  C134  1  0.61790000  0.63060000  0.10890000  1
  C  C135  1  0.62490000  0.58960000  0.96320000  1
  C  C136  1  0.62890000  0.03580000  0.24300000  1
  C  C137  1  0.66620000  0.52340000  0.97050000  1
  C  C138  1  0.67900000  0.47040000  0.90350000  1
  C  C139  1  0.69980000  0.66060000  0.50580000  1
  C  C140  1  0.69980000  0.70140000  0.64540000  1
  C  C141  1  0.73010000  0.79240000  0.78190000  1
  C  C142  1  0.75420000  0.69140000  0.57900000  1
  C  C143  1  0.75670000  0.73640000  0.72370000  1
  C  C144  1  0.78610000  0.22820000  0.40510000  1
  C  C145  1  0.78650000  0.82260000  0.85480000  1
  C  C146  1  0.79140000  0.47040000  0.40350000  1
  C  C147  1  0.83930000  0.71460000  0.74240000  1
  C  C148  1  0.85540000  0.27760000  0.47220000  1
  C  C149  1  0.85620000  0.74880000  0.31730000  1
  C  C150  1  0.85720000  0.52340000  0.47050000  1
  C  C151  1  0.87530000  0.71460000  0.24240000  1
  C  C152  1  0.89260000  0.74880000  0.81730000  1
  C  C153  1  0.89670000  0.35440000  0.94240000  1
  C  C154  1  0.91330000  0.32220000  0.86750000  1
  C  C155  1  0.91470000  0.31600000  0.32830000  1
  C  C156  1  0.92490000  0.54280000  0.32590000  1
  C  C157  1  0.93720000  0.69140000  0.07900000  1
  C  C158  1  0.93770000  0.20760000  0.71810000  1
  C  C159  1  0.95630000  0.54920000  0.81520000  1
  C  C160  1  0.95930000  0.35100000  0.46600000  1
  C  C161  1  0.96080000  0.66060000  0.00580000  1
  C  C162  1  0.96390000  0.17740000  0.64520000  1
  C  C163  1  0.96470000  0.58960000  0.46320000  1
  C  C164  1  0.97970000  0.73640000  0.22370000  1
  C  C165  1  0.98730000  0.36940000  0.39110000  1
  C  C166  1  0.99830000  0.59860000  0.38820000  1
  C  C167  1  0.99840000  0.29860000  0.85460000  1
  S  S168  1  0.19504000  0.78764000  0.87177000  1
  S  S169  1  0.21164000  0.55586000  0.87523000  1
  S  S170  1  0.33806000  0.74462000  0.27078000  1
  S  S171  1  0.34422000  0.55586000  0.37523000  1
  S  S172  1  0.40656000  0.74462000  0.77078000  1
  S  S173  1  0.40740000  0.21236000  0.62823000  1
  S  S174  1  0.59260000  0.78764000  0.37177000  1
  S  S175  1  0.59344000  0.25538000  0.22922000  1
  S  S176  1  0.65578000  0.44414000  0.62477000  1
  S  S177  1  0.66194000  0.25538000  0.72922000  1
  S  S178  1  0.78836000  0.44414000  0.12477000  1
  S  S179  1  0.80496000  0.21236000  0.12823000  1
  N  N180  1  0.04380000  0.63740000  0.99340000  1
  N  N181  1  0.06320000  0.19660000  0.62720000  1
  N  N182  1  0.12660000  0.49800000  0.22140000  1
  N  N183  1  0.13340000  0.19660000  0.12720000  1
  N  N184  1  0.17830000  0.52020000  0.66810000  1
  N  N185  1  0.18590000  0.75280000  0.66730000  1
  N  N186  1  0.34190000  0.52020000  0.16810000  1
  N  N187  1  0.37140000  0.49800000  0.72140000  1
  N  N188  1  0.40640000  0.36260000  0.50660000  1
  N  N189  1  0.43310000  0.24720000  0.83270000  1
  N  N190  1  0.56690000  0.75280000  0.16730000  1
  N  N191  1  0.59360000  0.63740000  0.49340000  1
  N  N192  1  0.62860000  0.50200000  0.27860000  1
  N  N193  1  0.65810000  0.47980000  0.83190000  1
  N  N194  1  0.81410000  0.24720000  0.33270000  1
  N  N195  1  0.82170000  0.47980000  0.33190000  1
  N  N196  1  0.86660000  0.80340000  0.87280000  1
  N  N197  1  0.87340000  0.50200000  0.77860000  1
  N  N198  1  0.93680000  0.80340000  0.37280000  1
  N  N199  1  0.95620000  0.36260000  0.00660000  1
  O  O200  1  0.37670000  0.77240000  0.46170000  1
  O  O201  1  0.39570000  0.77240000  0.96170000  1
  O  O202  1  0.60430000  0.22760000  0.03830000  1
  O  O203  1  0.62330000  0.22760000  0.53830000  1
