# generated using pymatgen
data_Zn5P4H16(C7O5)4
_symmetry_space_group_name_H-M   'P 1'
_cell_length_a   32.65200000
_cell_length_b   32.65200000
_cell_length_c   32.65200000
_cell_angle_alpha   90.00000000
_cell_angle_beta   90.00000000
_cell_angle_gamma   90.00000000
_symmetry_Int_Tables_number   1
_chemical_formula_structural   Zn5P4H16(C7O5)4
_chemical_formula_sum   'Zn120 P96 H384 C672 O480'
_cell_volume   34812.03115181
_cell_formula_units_Z   24
loop_
 _symmetry_equiv_pos_site_id
 _symmetry_equiv_pos_as_xyz
  1  'x, y, z'
loop_
 _atom_site_type_symbol
 _atom_site_label
 _atom_site_symmetry_multiplicity
 _atom_site_fract_x
 _atom_site_fract_y
 _atom_site_fract_z
 _atom_site_occupancy
  Zn  Zn0  1  0.01693000  0.08404000  0.86207000  1
  Zn  Zn1  1  0.01693000  0.41596000  0.63793000  1
  Zn  Zn2  1  0.01693000  0.63793000  0.08404000  1
  Zn  Zn3  1  0.01693000  0.86207000  0.41596000  1
  Zn  Zn4  1  0.02570000  0.19178000  0.86248000  1
  Zn  Zn5  1  0.02570000  0.30822000  0.63752000  1
  Zn  Zn6  1  0.02570000  0.63752000  0.19178000  1
  Zn  Zn7  1  0.02570000  0.86248000  0.30822000  1
  Zn  Zn8  1  0.08404000  0.01693000  0.63793000  1
  Zn  Zn9  1  0.08404000  0.48307000  0.86207000  1
  Zn  Zn10  1  0.08404000  0.63793000  0.48307000  1
  Zn  Zn11  1  0.08404000  0.86207000  0.01693000  1
  Zn  Zn12  1  0.09961000  0.09961000  0.25000000  1
  Zn  Zn13  1  0.09961000  0.25000000  0.09961000  1
  Zn  Zn14  1  0.09961000  0.25000000  0.40039000  1
  Zn  Zn15  1  0.09961000  0.40039000  0.25000000  1
  Zn  Zn16  1  0.13752000  0.52570000  0.69178000  1
  Zn  Zn17  1  0.13752000  0.69178000  0.97430000  1
  Zn  Zn18  1  0.13752000  0.80822000  0.52570000  1
  Zn  Zn19  1  0.13752000  0.97430000  0.80822000  1
  Zn  Zn20  1  0.13793000  0.51693000  0.58404000  1
  Zn  Zn21  1  0.13793000  0.58404000  0.98307000  1
  Zn  Zn22  1  0.13793000  0.91596000  0.51693000  1
  Zn  Zn23  1  0.13793000  0.98307000  0.91596000  1
  Zn  Zn24  1  0.19178000  0.02570000  0.63752000  1
  Zn  Zn25  1  0.19178000  0.47430000  0.86248000  1
  Zn  Zn26  1  0.19178000  0.63752000  0.47430000  1
  Zn  Zn27  1  0.19178000  0.86248000  0.02570000  1
  Zn  Zn28  1  0.25000000  0.09961000  0.09961000  1
  Zn  Zn29  1  0.25000000  0.09961000  0.40039000  1
  Zn  Zn30  1  0.25000000  0.40039000  0.09961000  1
  Zn  Zn31  1  0.25000000  0.40039000  0.40039000  1
  Zn  Zn32  1  0.30822000  0.02570000  0.86248000  1
  Zn  Zn33  1  0.30822000  0.47430000  0.63752000  1
  Zn  Zn34  1  0.30822000  0.63752000  0.02570000  1
  Zn  Zn35  1  0.30822000  0.86248000  0.47430000  1
  Zn  Zn36  1  0.36207000  0.51693000  0.91596000  1
  Zn  Zn37  1  0.36207000  0.58404000  0.51693000  1
  Zn  Zn38  1  0.36207000  0.91596000  0.98307000  1
  Zn  Zn39  1  0.36207000  0.98307000  0.58404000  1
  Zn  Zn40  1  0.36248000  0.52570000  0.80822000  1
  Zn  Zn41  1  0.36248000  0.69178000  0.52570000  1
  Zn  Zn42  1  0.36248000  0.80822000  0.97430000  1
  Zn  Zn43  1  0.36248000  0.97430000  0.69178000  1
  Zn  Zn44  1  0.40039000  0.09961000  0.25000000  1
  Zn  Zn45  1  0.40039000  0.25000000  0.09961000  1
  Zn  Zn46  1  0.40039000  0.25000000  0.40039000  1
  Zn  Zn47  1  0.40039000  0.40039000  0.25000000  1
  Zn  Zn48  1  0.41596000  0.01693000  0.86207000  1
  Zn  Zn49  1  0.41596000  0.48307000  0.63793000  1
  Zn  Zn50  1  0.41596000  0.63793000  0.01693000  1
  Zn  Zn51  1  0.41596000  0.86207000  0.48307000  1
  Zn  Zn52  1  0.47430000  0.19178000  0.63752000  1
  Zn  Zn53  1  0.47430000  0.30822000  0.86248000  1
  Zn  Zn54  1  0.47430000  0.63752000  0.30822000  1
  Zn  Zn55  1  0.47430000  0.86248000  0.19178000  1
  Zn  Zn56  1  0.48307000  0.08404000  0.63793000  1
  Zn  Zn57  1  0.48307000  0.41596000  0.86207000  1
  Zn  Zn58  1  0.48307000  0.63793000  0.41596000  1
  Zn  Zn59  1  0.48307000  0.86207000  0.08404000  1
  Zn  Zn60  1  0.51693000  0.13793000  0.91596000  1
  Zn  Zn61  1  0.51693000  0.36207000  0.58404000  1
  Zn  Zn62  1  0.51693000  0.58404000  0.13793000  1
  Zn  Zn63  1  0.51693000  0.91596000  0.36207000  1
  Zn  Zn64  1  0.52570000  0.13752000  0.80822000  1
  Zn  Zn65  1  0.52570000  0.36248000  0.69178000  1
  Zn  Zn66  1  0.52570000  0.69178000  0.13752000  1
  Zn  Zn67  1  0.52570000  0.80822000  0.36248000  1
  Zn  Zn68  1  0.58404000  0.13793000  0.51693000  1
  Zn  Zn69  1  0.58404000  0.36207000  0.98307000  1
  Zn  Zn70  1  0.58404000  0.51693000  0.36207000  1
  Zn  Zn71  1  0.58404000  0.98307000  0.13793000  1
  Zn  Zn72  1  0.59961000  0.59961000  0.75000000  1
  Zn  Zn73  1  0.59961000  0.75000000  0.59961000  1
  Zn  Zn74  1  0.59961000  0.75000000  0.90039000  1
  Zn  Zn75  1  0.59961000  0.90039000  0.75000000  1
  Zn  Zn76  1  0.63752000  0.02570000  0.30822000  1
  Zn  Zn77  1  0.63752000  0.19178000  0.02570000  1
  Zn  Zn78  1  0.63752000  0.30822000  0.47430000  1
  Zn  Zn79  1  0.63752000  0.47430000  0.19178000  1
  Zn  Zn80  1  0.63793000  0.01693000  0.41596000  1
  Zn  Zn81  1  0.63793000  0.08404000  0.01693000  1
  Zn  Zn82  1  0.63793000  0.41596000  0.48307000  1
  Zn  Zn83  1  0.63793000  0.48307000  0.08404000  1
  Zn  Zn84  1  0.69178000  0.13752000  0.52570000  1
  Zn  Zn85  1  0.69178000  0.36248000  0.97430000  1
  Zn  Zn86  1  0.69178000  0.52570000  0.36248000  1
  Zn  Zn87  1  0.69178000  0.97430000  0.13752000  1
  Zn  Zn88  1  0.75000000  0.59961000  0.59961000  1
  Zn  Zn89  1  0.75000000  0.59961000  0.90039000  1
  Zn  Zn90  1  0.75000000  0.90039000  0.59961000  1
  Zn  Zn91  1  0.75000000  0.90039000  0.90039000  1
  Zn  Zn92  1  0.80822000  0.13752000  0.97430000  1
  Zn  Zn93  1  0.80822000  0.36248000  0.52570000  1
  Zn  Zn94  1  0.80822000  0.52570000  0.13752000  1
  Zn  Zn95  1  0.80822000  0.97430000  0.36248000  1
  Zn  Zn96  1  0.86207000  0.01693000  0.08404000  1
  Zn  Zn97  1  0.86207000  0.08404000  0.48307000  1
  Zn  Zn98  1  0.86207000  0.41596000  0.01693000  1
  Zn  Zn99  1  0.86207000  0.48307000  0.41596000  1
  Zn  Zn100  1  0.86248000  0.02570000  0.19178000  1
  Zn  Zn101  1  0.86248000  0.19178000  0.47430000  1
  Zn  Zn102  1  0.86248000  0.30822000  0.02570000  1
  Zn  Zn103  1  0.86248000  0.47430000  0.30822000  1
  Zn  Zn104  1  0.90039000  0.59961000  0.75000000  1
  Zn  Zn105  1  0.90039000  0.75000000  0.59961000  1
  Zn  Zn106  1  0.90039000  0.75000000  0.90039000  1
  Zn  Zn107  1  0.90039000  0.90039000  0.75000000  1
  Zn  Zn108  1  0.91596000  0.13793000  0.98307000  1
  Zn  Zn109  1  0.91596000  0.36207000  0.51693000  1
  Zn  Zn110  1  0.91596000  0.51693000  0.13793000  1
  Zn  Zn111  1  0.91596000  0.98307000  0.36207000  1
  Zn  Zn112  1  0.97430000  0.13752000  0.69178000  1
  Zn  Zn113  1  0.97430000  0.36248000  0.80822000  1
  Zn  Zn114  1  0.97430000  0.69178000  0.36248000  1
  Zn  Zn115  1  0.97430000  0.80822000  0.13752000  1
  Zn  Zn116  1  0.98307000  0.13793000  0.58404000  1
  Zn  Zn117  1  0.98307000  0.36207000  0.91596000  1
  Zn  Zn118  1  0.98307000  0.58404000  0.36207000  1
  Zn  Zn119  1  0.98307000  0.91596000  0.13793000  1
  P  P120  1  0.00476000  0.13521000  0.94124000  1
  P  P121  1  0.00476000  0.36479000  0.55876000  1
  P  P122  1  0.00476000  0.55876000  0.13521000  1
  P  P123  1  0.00476000  0.94124000  0.36479000  1
  P  P124  1  0.02681000  0.20419000  0.63841000  1
  P  P125  1  0.02681000  0.29581000  0.86159000  1
  P  P126  1  0.02681000  0.63841000  0.29581000  1
  P  P127  1  0.02681000  0.86159000  0.20419000  1
  P  P128  1  0.05876000  0.50476000  0.63521000  1
  P  P129  1  0.05876000  0.63521000  0.99524000  1
  P  P130  1  0.05876000  0.86479000  0.50476000  1
  P  P131  1  0.05876000  0.99524000  0.86479000  1
  P  P132  1  0.13521000  0.00476000  0.55876000  1
  P  P133  1  0.13521000  0.49524000  0.94124000  1
  P  P134  1  0.13521000  0.55876000  0.49524000  1
  P  P135  1  0.13521000  0.94124000  0.00476000  1
  P  P136  1  0.13841000  0.52681000  0.79581000  1
  P  P137  1  0.13841000  0.70419000  0.52681000  1
  P  P138  1  0.13841000  0.79581000  0.97319000  1
  P  P139  1  0.13841000  0.97319000  0.70419000  1
  P  P140  1  0.20419000  0.02681000  0.86159000  1
  P  P141  1  0.20419000  0.47319000  0.63841000  1
  P  P142  1  0.20419000  0.63841000  0.02681000  1
  P  P143  1  0.20419000  0.86159000  0.47319000  1
  P  P144  1  0.29581000  0.02681000  0.63841000  1
  P  P145  1  0.29581000  0.47319000  0.86159000  1
  P  P146  1  0.29581000  0.63841000  0.47319000  1
  P  P147  1  0.29581000  0.86159000  0.02681000  1
  P  P148  1  0.36159000  0.52681000  0.70419000  1
  P  P149  1  0.36159000  0.70419000  0.97319000  1
  P  P150  1  0.36159000  0.79581000  0.52681000  1
  P  P151  1  0.36159000  0.97319000  0.79581000  1
  P  P152  1  0.36479000  0.00476000  0.94124000  1
  P  P153  1  0.36479000  0.49524000  0.55876000  1
  P  P154  1  0.36479000  0.55876000  0.00476000  1
  P  P155  1  0.36479000  0.94124000  0.49524000  1
  P  P156  1  0.44124000  0.50476000  0.86479000  1
  P  P157  1  0.44124000  0.63521000  0.50476000  1
  P  P158  1  0.44124000  0.86479000  0.99524000  1
  P  P159  1  0.44124000  0.99524000  0.63521000  1
  P  P160  1  0.47319000  0.20419000  0.86159000  1
  P  P161  1  0.47319000  0.29581000  0.63841000  1
  P  P162  1  0.47319000  0.63841000  0.20419000  1
  P  P163  1  0.47319000  0.86159000  0.29581000  1
  P  P164  1  0.49524000  0.13521000  0.55876000  1
  P  P165  1  0.49524000  0.36479000  0.94124000  1
  P  P166  1  0.49524000  0.55876000  0.36479000  1
  P  P167  1  0.49524000  0.94124000  0.13521000  1
  P  P168  1  0.50476000  0.05876000  0.86479000  1
  P  P169  1  0.50476000  0.44124000  0.63521000  1
  P  P170  1  0.50476000  0.63521000  0.05876000  1
  P  P171  1  0.50476000  0.86479000  0.44124000  1
  P  P172  1  0.52681000  0.13841000  0.70419000  1
  P  P173  1  0.52681000  0.36159000  0.79581000  1
  P  P174  1  0.52681000  0.70419000  0.36159000  1
  P  P175  1  0.52681000  0.79581000  0.13841000  1
  P  P176  1  0.55876000  0.00476000  0.36479000  1
  P  P177  1  0.55876000  0.13521000  0.00476000  1
  P  P178  1  0.55876000  0.36479000  0.49524000  1
  P  P179  1  0.55876000  0.49524000  0.13521000  1
  P  P180  1  0.63521000  0.05876000  0.50476000  1
  P  P181  1  0.63521000  0.44124000  0.99524000  1
  P  P182  1  0.63521000  0.50476000  0.44124000  1
  P  P183  1  0.63521000  0.99524000  0.05876000  1
  P  P184  1  0.63841000  0.02681000  0.20419000  1
  P  P185  1  0.63841000  0.20419000  0.47319000  1
  P  P186  1  0.63841000  0.29581000  0.02681000  1
  P  P187  1  0.63841000  0.47319000  0.29581000  1
  P  P188  1  0.70419000  0.13841000  0.97319000  1
  P  P189  1  0.70419000  0.36159000  0.52681000  1
  P  P190  1  0.70419000  0.52681000  0.13841000  1
  P  P191  1  0.70419000  0.97319000  0.36159000  1
  P  P192  1  0.79581000  0.13841000  0.52681000  1
  P  P193  1  0.79581000  0.36159000  0.97319000  1
  P  P194  1  0.79581000  0.52681000  0.36159000  1
  P  P195  1  0.79581000  0.97319000  0.13841000  1
  P  P196  1  0.86159000  0.02681000  0.29581000  1
  P  P197  1  0.86159000  0.20419000  0.02681000  1
  P  P198  1  0.86159000  0.29581000  0.47319000  1
  P  P199  1  0.86159000  0.47319000  0.20419000  1
  P  P200  1  0.86479000  0.05876000  0.99524000  1
  P  P201  1  0.86479000  0.44124000  0.50476000  1
  P  P202  1  0.86479000  0.50476000  0.05876000  1
  P  P203  1  0.86479000  0.99524000  0.44124000  1
  P  P204  1  0.94124000  0.00476000  0.13521000  1
  P  P205  1  0.94124000  0.13521000  0.49524000  1
  P  P206  1  0.94124000  0.36479000  0.00476000  1
  P  P207  1  0.94124000  0.49524000  0.36479000  1
  P  P208  1  0.97319000  0.13841000  0.79581000  1
  P  P209  1  0.97319000  0.36159000  0.70419000  1
  P  P210  1  0.97319000  0.70419000  0.13841000  1
  P  P211  1  0.97319000  0.79581000  0.36159000  1
  P  P212  1  0.99524000  0.05876000  0.63521000  1
  P  P213  1  0.99524000  0.44124000  0.86479000  1
  P  P214  1  0.99524000  0.63521000  0.44124000  1
  P  P215  1  0.99524000  0.86479000  0.05876000  1
  H  H216  1  0.00670000  0.04600000  0.17460000  1
  H  H217  1  0.00670000  0.17460000  0.45400000  1
  H  H218  1  0.00670000  0.32540000  0.04600000  1
  H  H219  1  0.00670000  0.45400000  0.32540000  1
  H  H220  1  0.02360000  0.56480000  0.87150000  1
  H  H221  1  0.02360000  0.62850000  0.56480000  1
  H  H222  1  0.02360000  0.87150000  0.93520000  1
  H  H223  1  0.02360000  0.93520000  0.62850000  1
  H  H224  1  0.03110000  0.10710000  0.35520000  1
  H  H225  1  0.03110000  0.14480000  0.10710000  1
  H  H226  1  0.03110000  0.35520000  0.39290000  1
  H  H227  1  0.03110000  0.39290000  0.14480000  1
  H  H228  1  0.04600000  0.00670000  0.32540000  1
  H  H229  1  0.04600000  0.17460000  0.00670000  1
  H  H230  1  0.04600000  0.32540000  0.49330000  1
  H  H231  1  0.04600000  0.49330000  0.17460000  1
  H  H232  1  0.06080000  0.57130000  0.57600000  1
  H  H233  1  0.06080000  0.57600000  0.92870000  1
  H  H234  1  0.06080000  0.92400000  0.57130000  1
  H  H235  1  0.06080000  0.92870000  0.92400000  1
  H  H236  1  0.06480000  0.12850000  0.52360000  1
  H  H237  1  0.06480000  0.37150000  0.97640000  1
  H  H238  1  0.06480000  0.52360000  0.37150000  1
  H  H239  1  0.06480000  0.97640000  0.12850000  1
  H  H240  1  0.07130000  0.07600000  0.93920000  1
  H  H241  1  0.07130000  0.42400000  0.56080000  1
  H  H242  1  0.07130000  0.56080000  0.07600000  1
  H  H243  1  0.07130000  0.93920000  0.42400000  1
  H  H244  1  0.07140000  0.13150000  0.63960000  1
  H  H245  1  0.07140000  0.36850000  0.86040000  1
  H  H246  1  0.07140000  0.63960000  0.36850000  1
  H  H247  1  0.07140000  0.86040000  0.13150000  1
  H  H248  1  0.07600000  0.07130000  0.56080000  1
  H  H249  1  0.07600000  0.42870000  0.93920000  1
  H  H250  1  0.07600000  0.56080000  0.42870000  1
  H  H251  1  0.07600000  0.93920000  0.07130000  1
  H  H252  1  0.10370000  0.24830000  0.65380000  1
  H  H253  1  0.10370000  0.25170000  0.84620000  1
  H  H254  1  0.10370000  0.65380000  0.25170000  1
  H  H255  1  0.10370000  0.84620000  0.24830000  1
  H  H256  1  0.10710000  0.03110000  0.14480000  1
  H  H257  1  0.10710000  0.14480000  0.46890000  1
  H  H258  1  0.10710000  0.35520000  0.03110000  1
  H  H259  1  0.10710000  0.46890000  0.35520000  1
  H  H260  1  0.12850000  0.06480000  0.97640000  1
  H  H261  1  0.12850000  0.43520000  0.52360000  1
  H  H262  1  0.12850000  0.52360000  0.06480000  1
  H  H263  1  0.12850000  0.97640000  0.43520000  1
  H  H264  1  0.13150000  0.07140000  0.86040000  1
  H  H265  1  0.13150000  0.42860000  0.63960000  1
  H  H266  1  0.13150000  0.63960000  0.07140000  1
  H  H267  1  0.13150000  0.86040000  0.42860000  1
  H  H268  1  0.13960000  0.57140000  0.86850000  1
  H  H269  1  0.13960000  0.63150000  0.57140000  1
  H  H270  1  0.13960000  0.86850000  0.92860000  1
  H  H271  1  0.13960000  0.92860000  0.63150000  1
  H  H272  1  0.14480000  0.03110000  0.39290000  1
  H  H273  1  0.14480000  0.10710000  0.03110000  1
  H  H274  1  0.14480000  0.39290000  0.46890000  1
  H  H275  1  0.14480000  0.46890000  0.10710000  1
  H  H276  1  0.15380000  0.60370000  0.75170000  1
  H  H277  1  0.15380000  0.74830000  0.60370000  1
  H  H278  1  0.15380000  0.75170000  0.89630000  1
  H  H279  1  0.15380000  0.89630000  0.74830000  1
  H  H280  1  0.15530000  0.66050000  0.68840000  1
  H  H281  1  0.15530000  0.68840000  0.83950000  1
  H  H282  1  0.15530000  0.81160000  0.66050000  1
  H  H283  1  0.15530000  0.83950000  0.81160000  1
  H  H284  1  0.15870000  0.67120000  0.77180000  1
  H  H285  1  0.15870000  0.72820000  0.67120000  1
  H  H286  1  0.15870000  0.77180000  0.82880000  1
  H  H287  1  0.15870000  0.82880000  0.72820000  1
  H  H288  1  0.16050000  0.18840000  0.84470000  1
  H  H289  1  0.16050000  0.31160000  0.65530000  1
  H  H290  1  0.16050000  0.65530000  0.18840000  1
  H  H291  1  0.16050000  0.84470000  0.31160000  1
  H  H292  1  0.17120000  0.22820000  0.65870000  1
  H  H293  1  0.17120000  0.27180000  0.84130000  1
  H  H294  1  0.17120000  0.65870000  0.27180000  1
  H  H295  1  0.17120000  0.84130000  0.22820000  1
  H  H296  1  0.17460000  0.00670000  0.04600000  1
  H  H297  1  0.17460000  0.04600000  0.49330000  1
  H  H298  1  0.17460000  0.45400000  0.00670000  1
  H  H299  1  0.17460000  0.49330000  0.45400000  1
  H  H300  1  0.18840000  0.16050000  0.65530000  1
  H  H301  1  0.18840000  0.33950000  0.84470000  1
  H  H302  1  0.18840000  0.65530000  0.33950000  1
  H  H303  1  0.18840000  0.84470000  0.16050000  1
  H  H304  1  0.22820000  0.17120000  0.84130000  1
  H  H305  1  0.22820000  0.32880000  0.65870000  1
  H  H306  1  0.22820000  0.65870000  0.17120000  1
  H  H307  1  0.22820000  0.84130000  0.32880000  1
  H  H308  1  0.24830000  0.10370000  0.84620000  1
  H  H309  1  0.24830000  0.39630000  0.65380000  1
  H  H310  1  0.24830000  0.65380000  0.10370000  1
  H  H311  1  0.24830000  0.84620000  0.39630000  1
  H  H312  1  0.25170000  0.10370000  0.65380000  1
  H  H313  1  0.25170000  0.39630000  0.84620000  1
  H  H314  1  0.25170000  0.65380000  0.39630000  1
  H  H315  1  0.25170000  0.84620000  0.10370000  1
  H  H316  1  0.27180000  0.17120000  0.65870000  1
  H  H317  1  0.27180000  0.32880000  0.84130000  1
  H  H318  1  0.27180000  0.65870000  0.32880000  1
  H  H319  1  0.27180000  0.84130000  0.17120000  1
  H  H320  1  0.31160000  0.16050000  0.84470000  1
  H  H321  1  0.31160000  0.33950000  0.65530000  1
  H  H322  1  0.31160000  0.65530000  0.16050000  1
  H  H323  1  0.31160000  0.84470000  0.33950000  1
  H  H324  1  0.32540000  0.00670000  0.45400000  1
  H  H325  1  0.32540000  0.04600000  0.00670000  1
  H  H326  1  0.32540000  0.45400000  0.49330000  1
  H  H327  1  0.32540000  0.49330000  0.04600000  1
  H  H328  1  0.32880000  0.22820000  0.84130000  1
  H  H329  1  0.32880000  0.27180000  0.65870000  1
  H  H330  1  0.32880000  0.65870000  0.22820000  1
  H  H331  1  0.32880000  0.84130000  0.27180000  1
  H  H332  1  0.33950000  0.18840000  0.65530000  1
  H  H333  1  0.33950000  0.31160000  0.84470000  1
  H  H334  1  0.33950000  0.65530000  0.31160000  1
  H  H335  1  0.33950000  0.84470000  0.18840000  1
  H  H336  1  0.34130000  0.67120000  0.72820000  1
  H  H337  1  0.34130000  0.72820000  0.82880000  1
  H  H338  1  0.34130000  0.77180000  0.67120000  1
  H  H339  1  0.34130000  0.82880000  0.77180000  1
  H  H340  1  0.34470000  0.66050000  0.81160000  1
  H  H341  1  0.34470000  0.68840000  0.66050000  1
  H  H342  1  0.34470000  0.81160000  0.83950000  1
  H  H343  1  0.34470000  0.83950000  0.68840000  1
  H  H344  1  0.34620000  0.60370000  0.74830000  1
  H  H345  1  0.34620000  0.74830000  0.89630000  1
  H  H346  1  0.34620000  0.75170000  0.60370000  1
  H  H347  1  0.34620000  0.89630000  0.75170000  1
  H  H348  1  0.35520000  0.03110000  0.10710000  1
  H  H349  1  0.35520000  0.10710000  0.46890000  1
  H  H350  1  0.35520000  0.39290000  0.03110000  1
  H  H351  1  0.35520000  0.46890000  0.39290000  1
  H  H352  1  0.36040000  0.57140000  0.63150000  1
  H  H353  1  0.36040000  0.63150000  0.92860000  1
  H  H354  1  0.36040000  0.86850000  0.57140000  1
  H  H355  1  0.36040000  0.92860000  0.86850000  1
  H  H356  1  0.36850000  0.07140000  0.63960000  1
  H  H357  1  0.36850000  0.42860000  0.86040000  1
  H  H358  1  0.36850000  0.63960000  0.42860000  1
  H  H359  1  0.36850000  0.86040000  0.07140000  1
  H  H360  1  0.37150000  0.06480000  0.52360000  1
  H  H361  1  0.37150000  0.43520000  0.97640000  1
  H  H362  1  0.37150000  0.52360000  0.43520000  1
  H  H363  1  0.37150000  0.97640000  0.06480000  1
  H  H364  1  0.39290000  0.03110000  0.35520000  1
  H  H365  1  0.39290000  0.14480000  0.03110000  1
  H  H366  1  0.39290000  0.35520000  0.46890000  1
  H  H367  1  0.39290000  0.46890000  0.14480000  1
  H  H368  1  0.39630000  0.24830000  0.84620000  1
  H  H369  1  0.39630000  0.25170000  0.65380000  1
  H  H370  1  0.39630000  0.65380000  0.24830000  1
  H  H371  1  0.39630000  0.84620000  0.25170000  1
  H  H372  1  0.42400000  0.07130000  0.93920000  1
  H  H373  1  0.42400000  0.42870000  0.56080000  1
  H  H374  1  0.42400000  0.56080000  0.07130000  1
  H  H375  1  0.42400000  0.93920000  0.42870000  1
  H  H376  1  0.42860000  0.13150000  0.86040000  1
  H  H377  1  0.42860000  0.36850000  0.63960000  1
  H  H378  1  0.42860000  0.63960000  0.13150000  1
  H  H379  1  0.42860000  0.86040000  0.36850000  1
  H  H380  1  0.42870000  0.07600000  0.56080000  1
  H  H381  1  0.42870000  0.42400000  0.93920000  1
  H  H382  1  0.42870000  0.56080000  0.42400000  1
  H  H383  1  0.42870000  0.93920000  0.07600000  1
  H  H384  1  0.43520000  0.12850000  0.97640000  1
  H  H385  1  0.43520000  0.37150000  0.52360000  1
  H  H386  1  0.43520000  0.52360000  0.12850000  1
  H  H387  1  0.43520000  0.97640000  0.37150000  1
  H  H388  1  0.43920000  0.57130000  0.92400000  1
  H  H389  1  0.43920000  0.57600000  0.57130000  1
  H  H390  1  0.43920000  0.92400000  0.92870000  1
  H  H391  1  0.43920000  0.92870000  0.57600000  1
  H  H392  1  0.45400000  0.00670000  0.17460000  1
  H  H393  1  0.45400000  0.17460000  0.49330000  1
  H  H394  1  0.45400000  0.32540000  0.00670000  1
  H  H395  1  0.45400000  0.49330000  0.32540000  1
  H  H396  1  0.46890000  0.10710000  0.14480000  1
  H  H397  1  0.46890000  0.14480000  0.39290000  1
  H  H398  1  0.46890000  0.35520000  0.10710000  1
  H  H399  1  0.46890000  0.39290000  0.35520000  1
  H  H400  1  0.47640000  0.56480000  0.62850000  1
  H  H401  1  0.47640000  0.62850000  0.93520000  1
  H  H402  1  0.47640000  0.87150000  0.56480000  1
  H  H403  1  0.47640000  0.93520000  0.87150000  1
  H  H404  1  0.49330000  0.04600000  0.32540000  1
  H  H405  1  0.49330000  0.17460000  0.04600000  1
  H  H406  1  0.49330000  0.32540000  0.45400000  1
  H  H407  1  0.49330000  0.45400000  0.17460000  1
  H  H408  1  0.50670000  0.54600000  0.82540000  1
  H  H409  1  0.50670000  0.67460000  0.54600000  1
  H  H410  1  0.50670000  0.82540000  0.95400000  1
  H  H411  1  0.50670000  0.95400000  0.67460000  1
  H  H412  1  0.52360000  0.06480000  0.12850000  1
  H  H413  1  0.52360000  0.12850000  0.43520000  1
  H  H414  1  0.52360000  0.37150000  0.06480000  1
  H  H415  1  0.52360000  0.43520000  0.37150000  1
  H  H416  1  0.53110000  0.60710000  0.64480000  1
  H  H417  1  0.53110000  0.64480000  0.89290000  1
  H  H418  1  0.53110000  0.85520000  0.60710000  1
  H  H419  1  0.53110000  0.89290000  0.85520000  1
  H  H420  1  0.54600000  0.50670000  0.67460000  1
  H  H421  1  0.54600000  0.67460000  0.99330000  1
  H  H422  1  0.54600000  0.82540000  0.50670000  1
  H  H423  1  0.54600000  0.99330000  0.82540000  1
  H  H424  1  0.56080000  0.07130000  0.42400000  1
  H  H425  1  0.56080000  0.07600000  0.07130000  1
  H  H426  1  0.56080000  0.42400000  0.42870000  1
  H  H427  1  0.56080000  0.42870000  0.07600000  1
  H  H428  1  0.56480000  0.02360000  0.62850000  1
  H  H429  1  0.56480000  0.47640000  0.87150000  1
  H  H430  1  0.56480000  0.62850000  0.47640000  1
  H  H431  1  0.56480000  0.87150000  0.02360000  1
  H  H432  1  0.57130000  0.06080000  0.92400000  1
  H  H433  1  0.57130000  0.43920000  0.57600000  1
  H  H434  1  0.57130000  0.57600000  0.06080000  1
  H  H435  1  0.57130000  0.92400000  0.43920000  1
  H  H436  1  0.57140000  0.13960000  0.63150000  1
  H  H437  1  0.57140000  0.36040000  0.86850000  1
  H  H438  1  0.57140000  0.63150000  0.36040000  1
  H  H439  1  0.57140000  0.86850000  0.13960000  1
  H  H440  1  0.57600000  0.06080000  0.57130000  1
  H  H441  1  0.57600000  0.43920000  0.92870000  1
  H  H442  1  0.57600000  0.57130000  0.43920000  1
  H  H443  1  0.57600000  0.92870000  0.06080000  1
  H  H444  1  0.60370000  0.15380000  0.74830000  1
  H  H445  1  0.60370000  0.34620000  0.75170000  1
  H  H446  1  0.60370000  0.74830000  0.34620000  1
  H  H447  1  0.60370000  0.75170000  0.15380000  1
  H  H448  1  0.60710000  0.53110000  0.85520000  1
  H  H449  1  0.60710000  0.64480000  0.53110000  1
  H  H450  1  0.60710000  0.85520000  0.96890000  1
  H  H451  1  0.60710000  0.96890000  0.64480000  1
  H  H452  1  0.62850000  0.02360000  0.93520000  1
  H  H453  1  0.62850000  0.47640000  0.56480000  1
  H  H454  1  0.62850000  0.56480000  0.02360000  1
  H  H455  1  0.62850000  0.93520000  0.47640000  1
  H  H456  1  0.63150000  0.13960000  0.92860000  1
  H  H457  1  0.63150000  0.36040000  0.57140000  1
  H  H458  1  0.63150000  0.57140000  0.13960000  1
  H  H459  1  0.63150000  0.92860000  0.36040000  1
  H  H460  1  0.63960000  0.07140000  0.13150000  1
  H  H461  1  0.63960000  0.13150000  0.42860000  1
  H  H462  1  0.63960000  0.36850000  0.07140000  1
  H  H463  1  0.63960000  0.42860000  0.36850000  1
  H  H464  1  0.64480000  0.53110000  0.60710000  1
  H  H465  1  0.64480000  0.60710000  0.96890000  1
  H  H466  1  0.64480000  0.89290000  0.53110000  1
  H  H467  1  0.64480000  0.96890000  0.89290000  1
  H  H468  1  0.65380000  0.10370000  0.24830000  1
  H  H469  1  0.65380000  0.24830000  0.39630000  1
  H  H470  1  0.65380000  0.25170000  0.10370000  1
  H  H471  1  0.65380000  0.39630000  0.25170000  1
  H  H472  1  0.65530000  0.16050000  0.31160000  1
  H  H473  1  0.65530000  0.18840000  0.16050000  1
  H  H474  1  0.65530000  0.31160000  0.33950000  1
  H  H475  1  0.65530000  0.33950000  0.18840000  1
  H  H476  1  0.65870000  0.17120000  0.22820000  1
  H  H477  1  0.65870000  0.22820000  0.32880000  1
  H  H478  1  0.65870000  0.27180000  0.17120000  1
  H  H479  1  0.65870000  0.32880000  0.27180000  1
  H  H480  1  0.66050000  0.15530000  0.81160000  1
  H  H481  1  0.66050000  0.34470000  0.68840000  1
  H  H482  1  0.66050000  0.68840000  0.15530000  1
  H  H483  1  0.66050000  0.81160000  0.34470000  1
  H  H484  1  0.67120000  0.15870000  0.72820000  1
  H  H485  1  0.67120000  0.34130000  0.77180000  1
  H  H486  1  0.67120000  0.72820000  0.34130000  1
  H  H487  1  0.67120000  0.77180000  0.15870000  1
  H  H488  1  0.67460000  0.50670000  0.95400000  1
  H  H489  1  0.67460000  0.54600000  0.50670000  1
  H  H490  1  0.67460000  0.95400000  0.99330000  1
  H  H491  1  0.67460000  0.99330000  0.54600000  1
  H  H492  1  0.68840000  0.15530000  0.66050000  1
  H  H493  1  0.68840000  0.34470000  0.83950000  1
  H  H494  1  0.68840000  0.66050000  0.34470000  1
  H  H495  1  0.68840000  0.83950000  0.15530000  1
  H  H496  1  0.72820000  0.15870000  0.82880000  1
  H  H497  1  0.72820000  0.34130000  0.67120000  1
  H  H498  1  0.72820000  0.67120000  0.15870000  1
  H  H499  1  0.72820000  0.82880000  0.34130000  1
  H  H500  1  0.74830000  0.15380000  0.89630000  1
  H  H501  1  0.74830000  0.34620000  0.60370000  1
  H  H502  1  0.74830000  0.60370000  0.15380000  1
  H  H503  1  0.74830000  0.89630000  0.34620000  1
  H  H504  1  0.75170000  0.15380000  0.60370000  1
  H  H505  1  0.75170000  0.34620000  0.89630000  1
  H  H506  1  0.75170000  0.60370000  0.34620000  1
  H  H507  1  0.75170000  0.89630000  0.15380000  1
  H  H508  1  0.77180000  0.15870000  0.67120000  1
  H  H509  1  0.77180000  0.34130000  0.82880000  1
  H  H510  1  0.77180000  0.67120000  0.34130000  1
  H  H511  1  0.77180000  0.82880000  0.15870000  1
  H  H512  1  0.81160000  0.15530000  0.83950000  1
  H  H513  1  0.81160000  0.34470000  0.66050000  1
  H  H514  1  0.81160000  0.66050000  0.15530000  1
  H  H515  1  0.81160000  0.83950000  0.34470000  1
  H  H516  1  0.82540000  0.50670000  0.54600000  1
  H  H517  1  0.82540000  0.54600000  0.99330000  1
  H  H518  1  0.82540000  0.95400000  0.50670000  1
  H  H519  1  0.82540000  0.99330000  0.95400000  1
  H  H520  1  0.82880000  0.15870000  0.77180000  1
  H  H521  1  0.82880000  0.34130000  0.72820000  1
  H  H522  1  0.82880000  0.72820000  0.15870000  1
  H  H523  1  0.82880000  0.77180000  0.34130000  1
  H  H524  1  0.83950000  0.15530000  0.68840000  1
  H  H525  1  0.83950000  0.34470000  0.81160000  1
  H  H526  1  0.83950000  0.68840000  0.34470000  1
  H  H527  1  0.83950000  0.81160000  0.15530000  1
  H  H528  1  0.84130000  0.17120000  0.27180000  1
  H  H529  1  0.84130000  0.22820000  0.17120000  1
  H  H530  1  0.84130000  0.27180000  0.32880000  1
  H  H531  1  0.84130000  0.32880000  0.22820000  1
  H  H532  1  0.84470000  0.16050000  0.18840000  1
  H  H533  1  0.84470000  0.18840000  0.33950000  1
  H  H534  1  0.84470000  0.31160000  0.16050000  1
  H  H535  1  0.84470000  0.33950000  0.31160000  1
  H  H536  1  0.84620000  0.10370000  0.25170000  1
  H  H537  1  0.84620000  0.24830000  0.10370000  1
  H  H538  1  0.84620000  0.25170000  0.39630000  1
  H  H539  1  0.84620000  0.39630000  0.24830000  1
  H  H540  1  0.85520000  0.53110000  0.89290000  1
  H  H541  1  0.85520000  0.60710000  0.53110000  1
  H  H542  1  0.85520000  0.89290000  0.96890000  1
  H  H543  1  0.85520000  0.96890000  0.60710000  1
  H  H544  1  0.86040000  0.07140000  0.36850000  1
  H  H545  1  0.86040000  0.13150000  0.07140000  1
  H  H546  1  0.86040000  0.36850000  0.42860000  1
  H  H547  1  0.86040000  0.42860000  0.13150000  1
  H  H548  1  0.86850000  0.13960000  0.57140000  1
  H  H549  1  0.86850000  0.36040000  0.92860000  1
  H  H550  1  0.86850000  0.57140000  0.36040000  1
  H  H551  1  0.86850000  0.92860000  0.13960000  1
  H  H552  1  0.87150000  0.02360000  0.56480000  1
  H  H553  1  0.87150000  0.47640000  0.93520000  1
  H  H554  1  0.87150000  0.56480000  0.47640000  1
  H  H555  1  0.87150000  0.93520000  0.02360000  1
  H  H556  1  0.89290000  0.53110000  0.64480000  1
  H  H557  1  0.89290000  0.64480000  0.96890000  1
  H  H558  1  0.89290000  0.85520000  0.53110000  1
  H  H559  1  0.89290000  0.96890000  0.85520000  1
  H  H560  1  0.89630000  0.15380000  0.75170000  1
  H  H561  1  0.89630000  0.34620000  0.74830000  1
  H  H562  1  0.89630000  0.74830000  0.15380000  1
  H  H563  1  0.89630000  0.75170000  0.34620000  1
  H  H564  1  0.92400000  0.06080000  0.92870000  1
  H  H565  1  0.92400000  0.43920000  0.57130000  1
  H  H566  1  0.92400000  0.57130000  0.06080000  1
  H  H567  1  0.92400000  0.92870000  0.43920000  1
  H  H568  1  0.92860000  0.13960000  0.86850000  1
  H  H569  1  0.92860000  0.36040000  0.63150000  1
  H  H570  1  0.92860000  0.63150000  0.13960000  1
  H  H571  1  0.92860000  0.86850000  0.36040000  1
  H  H572  1  0.92870000  0.06080000  0.57600000  1
  H  H573  1  0.92870000  0.43920000  0.92400000  1
  H  H574  1  0.92870000  0.57600000  0.43920000  1
  H  H575  1  0.92870000  0.92400000  0.06080000  1
  H  H576  1  0.93520000  0.02360000  0.87150000  1
  H  H577  1  0.93520000  0.47640000  0.62850000  1
  H  H578  1  0.93520000  0.62850000  0.02360000  1
  H  H579  1  0.93520000  0.87150000  0.47640000  1
  H  H580  1  0.93920000  0.07130000  0.07600000  1
  H  H581  1  0.93920000  0.07600000  0.42870000  1
  H  H582  1  0.93920000  0.42400000  0.07130000  1
  H  H583  1  0.93920000  0.42870000  0.42400000  1
  H  H584  1  0.95400000  0.50670000  0.82540000  1
  H  H585  1  0.95400000  0.67460000  0.50670000  1
  H  H586  1  0.95400000  0.82540000  0.99330000  1
  H  H587  1  0.95400000  0.99330000  0.67460000  1
  H  H588  1  0.96890000  0.60710000  0.85520000  1
  H  H589  1  0.96890000  0.64480000  0.60710000  1
  H  H590  1  0.96890000  0.85520000  0.89290000  1
  H  H591  1  0.96890000  0.89290000  0.64480000  1
  H  H592  1  0.97640000  0.06480000  0.37150000  1
  H  H593  1  0.97640000  0.12850000  0.06480000  1
  H  H594  1  0.97640000  0.37150000  0.43520000  1
  H  H595  1  0.97640000  0.43520000  0.12850000  1
  H  H596  1  0.99330000  0.54600000  0.67460000  1
  H  H597  1  0.99330000  0.67460000  0.95400000  1
  H  H598  1  0.99330000  0.82540000  0.54600000  1
  H  H599  1  0.99330000  0.95400000  0.82540000  1
  C  C600  1  0.00036000  0.06308000  0.15273000  1
  C  C601  1  0.00036000  0.15273000  0.43692000  1
  C  C602  1  0.00036000  0.34727000  0.06308000  1
  C  C603  1  0.00036000  0.43692000  0.34727000  1
  C  C604  1  0.01490000  0.11280000  0.37800000  1
  C  C605  1  0.01490000  0.12200000  0.11280000  1
  C  C606  1  0.01490000  0.37800000  0.38720000  1
  C  C607  1  0.01490000  0.38720000  0.12200000  1
  C  C608  1  0.01730000  0.58700000  0.88820000  1
  C  C609  1  0.01730000  0.61180000  0.58700000  1
  C  C610  1  0.01730000  0.88820000  0.91300000  1
  C  C611  1  0.01730000  0.91300000  0.61180000  1
  C  C612  1  0.02280000  0.09820000  0.14700000  1
  C  C613  1  0.02280000  0.14700000  0.40180000  1
  C  C614  1  0.02280000  0.35300000  0.09820000  1
  C  C615  1  0.02280000  0.40180000  0.35300000  1
  C  C616  1  0.03179000  0.55232000  0.62643000  1
  C  C617  1  0.03179000  0.62643000  0.94768000  1
  C  C618  1  0.03179000  0.87357000  0.55232000  1
  C  C619  1  0.03179000  0.94768000  0.87357000  1
  C  C620  1  0.03960000  0.57770000  0.59380000  1
  C  C621  1  0.03960000  0.59380000  0.92230000  1
  C  C622  1  0.03960000  0.90620000  0.57770000  1
  C  C623  1  0.03960000  0.92230000  0.90620000  1
  C  C624  1  0.05232000  0.12643000  0.96821000  1
  C  C625  1  0.05232000  0.37357000  0.53179000  1
  C  C626  1  0.05232000  0.53179000  0.12643000  1
  C  C627  1  0.05232000  0.96821000  0.37357000  1
  C  C628  1  0.05580000  0.10890000  0.17600000  1
  C  C629  1  0.05580000  0.17600000  0.39110000  1
  C  C630  1  0.05580000  0.32400000  0.10890000  1
  C  C631  1  0.05580000  0.39110000  0.32400000  1
  C  C632  1  0.06308000  0.00036000  0.34727000  1
  C  C633  1  0.06308000  0.15273000  0.00036000  1
  C  C634  1  0.06308000  0.34727000  0.49964000  1
  C  C635  1  0.06308000  0.49964000  0.15273000  1
  C  C636  1  0.07770000  0.09380000  0.96040000  1
  C  C637  1  0.07770000  0.40620000  0.53960000  1
  C  C638  1  0.07770000  0.53960000  0.09380000  1
  C  C639  1  0.07770000  0.96040000  0.40620000  1
  C  C640  1  0.08034000  0.19169000  0.64440000  1
  C  C641  1  0.08034000  0.30831000  0.85560000  1
  C  C642  1  0.08034000  0.64440000  0.30831000  1
  C  C643  1  0.08034000  0.85560000  0.19169000  1
  C  C644  1  0.08700000  0.11180000  0.51730000  1
  C  C645  1  0.08700000  0.38820000  0.98270000  1
  C  C646  1  0.08700000  0.51730000  0.38820000  1
  C  C647  1  0.08700000  0.98270000  0.11180000  1
  C  C648  1  0.09166000  0.15123000  0.64307000  1
  C  C649  1  0.09166000  0.34877000  0.85693000  1
  C  C650  1  0.09166000  0.64307000  0.34877000  1
  C  C651  1  0.09166000  0.85693000  0.15123000  1
  C  C652  1  0.09380000  0.07770000  0.53960000  1
  C  C653  1  0.09380000  0.42230000  0.96040000  1
  C  C654  1  0.09380000  0.53960000  0.42230000  1
  C  C655  1  0.09380000  0.96040000  0.07770000  1
  C  C656  1  0.09407000  0.14158000  0.85497000  1
  C  C657  1  0.09407000  0.35842000  0.64503000  1
  C  C658  1  0.09407000  0.64503000  0.14158000  1
  C  C659  1  0.09407000  0.85497000  0.35842000  1
  C  C660  1  0.09820000  0.02280000  0.35300000  1
  C  C661  1  0.09820000  0.14700000  0.02280000  1
  C  C662  1  0.09820000  0.35300000  0.47720000  1
  C  C663  1  0.09820000  0.47720000  0.14700000  1
  C  C664  1  0.10890000  0.05580000  0.32400000  1
  C  C665  1  0.10890000  0.17600000  0.05580000  1
  C  C666  1  0.10890000  0.32400000  0.44420000  1
  C  C667  1  0.10890000  0.44420000  0.17600000  1
  C  C668  1  0.11060000  0.22070000  0.65140000  1
  C  C669  1  0.11060000  0.27930000  0.84860000  1
  C  C670  1  0.11060000  0.65140000  0.27930000  1
  C  C671  1  0.11060000  0.84860000  0.22070000  1
  C  C672  1  0.11180000  0.08700000  0.98270000  1
  C  C673  1  0.11180000  0.41300000  0.51730000  1
  C  C674  1  0.11180000  0.51730000  0.08700000  1
  C  C675  1  0.11180000  0.98270000  0.41300000  1
  C  C676  1  0.11280000  0.01490000  0.12200000  1
  C  C677  1  0.11280000  0.12200000  0.48510000  1
  C  C678  1  0.11280000  0.37800000  0.01490000  1
  C  C679  1  0.11280000  0.48510000  0.37800000  1
  C  C680  1  0.12200000  0.01490000  0.38720000  1
  C  C681  1  0.12200000  0.11280000  0.01490000  1
  C  C682  1  0.12200000  0.38720000  0.48510000  1
  C  C683  1  0.12200000  0.48510000  0.11280000  1
  C  C684  1  0.12643000  0.05232000  0.53179000  1
  C  C685  1  0.12643000  0.44768000  0.96821000  1
  C  C686  1  0.12643000  0.53179000  0.44768000  1
  C  C687  1  0.12643000  0.96821000  0.05232000  1
  C  C688  1  0.13134000  0.13882000  0.64670000  1
  C  C689  1  0.13134000  0.36118000  0.85330000  1
  C  C690  1  0.13134000  0.64670000  0.36118000  1
  C  C691  1  0.13134000  0.85330000  0.13882000  1
  C  C692  1  0.13882000  0.13134000  0.85330000  1
  C  C693  1  0.13882000  0.36866000  0.64670000  1
  C  C694  1  0.13882000  0.64670000  0.13134000  1
  C  C695  1  0.13882000  0.85330000  0.36866000  1
  C  C696  1  0.14158000  0.09407000  0.64503000  1
  C  C697  1  0.14158000  0.40593000  0.85497000  1
  C  C698  1  0.14158000  0.64503000  0.40593000  1
  C  C699  1  0.14158000  0.85497000  0.09407000  1
  C  C700  1  0.14307000  0.59166000  0.84877000  1
  C  C701  1  0.14307000  0.65123000  0.59166000  1
  C  C702  1  0.14307000  0.84877000  0.90834000  1
  C  C703  1  0.14307000  0.90834000  0.65123000  1
  C  C704  1  0.14440000  0.58034000  0.80831000  1
  C  C705  1  0.14440000  0.69169000  0.58034000  1
  C  C706  1  0.14440000  0.80831000  0.91966000  1
  C  C707  1  0.14440000  0.91966000  0.69169000  1
  C  C708  1  0.14503000  0.59407000  0.64158000  1
  C  C709  1  0.14503000  0.64158000  0.90593000  1
  C  C710  1  0.14503000  0.85842000  0.59407000  1
  C  C711  1  0.14503000  0.90593000  0.85842000  1
  C  C712  1  0.14670000  0.63134000  0.86118000  1
  C  C713  1  0.14670000  0.63882000  0.63134000  1
  C  C714  1  0.14670000  0.86118000  0.86866000  1
  C  C715  1  0.14670000  0.86866000  0.63882000  1
  C  C716  1  0.14700000  0.02280000  0.09820000  1
  C  C717  1  0.14700000  0.09820000  0.47720000  1
  C  C718  1  0.14700000  0.40180000  0.02280000  1
  C  C719  1  0.14700000  0.47720000  0.40180000  1
  C  C720  1  0.15090000  0.20860000  0.65490000  1
  C  C721  1  0.15090000  0.29140000  0.84510000  1
  C  C722  1  0.15090000  0.65490000  0.29140000  1
  C  C723  1  0.15090000  0.84510000  0.20860000  1
  C  C724  1  0.15123000  0.09166000  0.85693000  1
  C  C725  1  0.15123000  0.40834000  0.64307000  1
  C  C726  1  0.15123000  0.64307000  0.09166000  1
  C  C727  1  0.15123000  0.85693000  0.40834000  1
  C  C728  1  0.15140000  0.61060000  0.77930000  1
  C  C729  1  0.15140000  0.72070000  0.61060000  1
  C  C730  1  0.15140000  0.77930000  0.88940000  1
  C  C731  1  0.15140000  0.88940000  0.72070000  1
  C  C732  1  0.15270000  0.66120000  0.83170000  1
  C  C733  1  0.15270000  0.66830000  0.66120000  1
  C  C734  1  0.15270000  0.83170000  0.83880000  1
  C  C735  1  0.15270000  0.83880000  0.66830000  1
  C  C736  1  0.15273000  0.00036000  0.06308000  1
  C  C737  1  0.15273000  0.06308000  0.49964000  1
  C  C738  1  0.15273000  0.43692000  0.00036000  1
  C  C739  1  0.15273000  0.49964000  0.43692000  1
  C  C740  1  0.15490000  0.65090000  0.79140000  1
  C  C741  1  0.15490000  0.70860000  0.65090000  1
  C  C742  1  0.15490000  0.79140000  0.84910000  1
  C  C743  1  0.15490000  0.84910000  0.70860000  1
  C  C744  1  0.16120000  0.16830000  0.65270000  1
  C  C745  1  0.16120000  0.33170000  0.84730000  1
  C  C746  1  0.16120000  0.65270000  0.33170000  1
  C  C747  1  0.16120000  0.84730000  0.16830000  1
  C  C748  1  0.16830000  0.16120000  0.84730000  1
  C  C749  1  0.16830000  0.33880000  0.65270000  1
  C  C750  1  0.16830000  0.65270000  0.16120000  1
  C  C751  1  0.16830000  0.84730000  0.33880000  1
  C  C752  1  0.17600000  0.05580000  0.10890000  1
  C  C753  1  0.17600000  0.10890000  0.44420000  1
  C  C754  1  0.17600000  0.39110000  0.05580000  1
  C  C755  1  0.17600000  0.44420000  0.39110000  1
  C  C756  1  0.19169000  0.08034000  0.85560000  1
  C  C757  1  0.19169000  0.41966000  0.64440000  1
  C  C758  1  0.19169000  0.64440000  0.08034000  1
  C  C759  1  0.19169000  0.85560000  0.41966000  1
  C  C760  1  0.20860000  0.15090000  0.84510000  1
  C  C761  1  0.20860000  0.34910000  0.65490000  1
  C  C762  1  0.20860000  0.65490000  0.15090000  1
  C  C763  1  0.20860000  0.84510000  0.34910000  1
  C  C764  1  0.22070000  0.11060000  0.84860000  1
  C  C765  1  0.22070000  0.38940000  0.65140000  1
  C  C766  1  0.22070000  0.65140000  0.11060000  1
  C  C767  1  0.22070000  0.84860000  0.38940000  1
  C  C768  1  0.27930000  0.11060000  0.65140000  1
  C  C769  1  0.27930000  0.38940000  0.84860000  1
  C  C770  1  0.27930000  0.65140000  0.38940000  1
  C  C771  1  0.27930000  0.84860000  0.11060000  1
  C  C772  1  0.29140000  0.15090000  0.65490000  1
  C  C773  1  0.29140000  0.34910000  0.84510000  1
  C  C774  1  0.29140000  0.65490000  0.34910000  1
  C  C775  1  0.29140000  0.84510000  0.15090000  1
  C  C776  1  0.30831000  0.08034000  0.64440000  1
  C  C777  1  0.30831000  0.41966000  0.85560000  1
  C  C778  1  0.30831000  0.64440000  0.41966000  1
  C  C779  1  0.30831000  0.85560000  0.08034000  1
  C  C780  1  0.32400000  0.05580000  0.39110000  1
  C  C781  1  0.32400000  0.10890000  0.05580000  1
  C  C782  1  0.32400000  0.39110000  0.44420000  1
  C  C783  1  0.32400000  0.44420000  0.10890000  1
  C  C784  1  0.33170000  0.16120000  0.65270000  1
  C  C785  1  0.33170000  0.33880000  0.84730000  1
  C  C786  1  0.33170000  0.65270000  0.33880000  1
  C  C787  1  0.33170000  0.84730000  0.16120000  1
  C  C788  1  0.33880000  0.16830000  0.84730000  1
  C  C789  1  0.33880000  0.33170000  0.65270000  1
  C  C790  1  0.33880000  0.65270000  0.16830000  1
  C  C791  1  0.33880000  0.84730000  0.33170000  1
  C  C792  1  0.34510000  0.65090000  0.70860000  1
  C  C793  1  0.34510000  0.70860000  0.84910000  1
  C  C794  1  0.34510000  0.79140000  0.65090000  1
  C  C795  1  0.34510000  0.84910000  0.79140000  1
  C  C796  1  0.34727000  0.00036000  0.43692000  1
  C  C797  1  0.34727000  0.06308000  0.00036000  1
  C  C798  1  0.34727000  0.43692000  0.49964000  1
  C  C799  1  0.34727000  0.49964000  0.06308000  1
  C  C800  1  0.34730000  0.66120000  0.66830000  1
  C  C801  1  0.34730000  0.66830000  0.83880000  1
  C  C802  1  0.34730000  0.83170000  0.66120000  1
  C  C803  1  0.34730000  0.83880000  0.83170000  1
  C  C804  1  0.34860000  0.61060000  0.72070000  1
  C  C805  1  0.34860000  0.72070000  0.88940000  1
  C  C806  1  0.34860000  0.77930000  0.61060000  1
  C  C807  1  0.34860000  0.88940000  0.77930000  1
  C  C808  1  0.34877000  0.09166000  0.64307000  1
  C  C809  1  0.34877000  0.40834000  0.85693000  1
  C  C810  1  0.34877000  0.64307000  0.40834000  1
  C  C811  1  0.34877000  0.85693000  0.09166000  1
  C  C812  1  0.34910000  0.20860000  0.84510000  1
  C  C813  1  0.34910000  0.29140000  0.65490000  1
  C  C814  1  0.34910000  0.65490000  0.20860000  1
  C  C815  1  0.34910000  0.84510000  0.29140000  1
  C  C816  1  0.35300000  0.02280000  0.40180000  1
  C  C817  1  0.35300000  0.09820000  0.02280000  1
  C  C818  1  0.35300000  0.40180000  0.47720000  1
  C  C819  1  0.35300000  0.47720000  0.09820000  1
  C  C820  1  0.35330000  0.63134000  0.63882000  1
  C  C821  1  0.35330000  0.63882000  0.86866000  1
  C  C822  1  0.35330000  0.86118000  0.63134000  1
  C  C823  1  0.35330000  0.86866000  0.86118000  1
  C  C824  1  0.35497000  0.59407000  0.85842000  1
  C  C825  1  0.35497000  0.64158000  0.59407000  1
  C  C826  1  0.35497000  0.85842000  0.90593000  1
  C  C827  1  0.35497000  0.90593000  0.64158000  1
  C  C828  1  0.35560000  0.58034000  0.69169000  1
  C  C829  1  0.35560000  0.69169000  0.91966000  1
  C  C830  1  0.35560000  0.80831000  0.58034000  1
  C  C831  1  0.35560000  0.91966000  0.80831000  1
  C  C832  1  0.35693000  0.59166000  0.65123000  1
  C  C833  1  0.35693000  0.65123000  0.90834000  1
  C  C834  1  0.35693000  0.84877000  0.59166000  1
  C  C835  1  0.35693000  0.90834000  0.84877000  1
  C  C836  1  0.35842000  0.09407000  0.85497000  1
  C  C837  1  0.35842000  0.40593000  0.64503000  1
  C  C838  1  0.35842000  0.64503000  0.09407000  1
  C  C839  1  0.35842000  0.85497000  0.40593000  1
  C  C840  1  0.36118000  0.13134000  0.64670000  1
  C  C841  1  0.36118000  0.36866000  0.85330000  1
  C  C842  1  0.36118000  0.64670000  0.36866000  1
  C  C843  1  0.36118000  0.85330000  0.13134000  1
  C  C844  1  0.36866000  0.13882000  0.85330000  1
  C  C845  1  0.36866000  0.36118000  0.64670000  1
  C  C846  1  0.36866000  0.64670000  0.13882000  1
  C  C847  1  0.36866000  0.85330000  0.36118000  1
  C  C848  1  0.37357000  0.05232000  0.96821000  1
  C  C849  1  0.37357000  0.44768000  0.53179000  1
  C  C850  1  0.37357000  0.53179000  0.05232000  1
  C  C851  1  0.37357000  0.96821000  0.44768000  1
  C  C852  1  0.37800000  0.01490000  0.11280000  1
  C  C853  1  0.37800000  0.11280000  0.48510000  1
  C  C854  1  0.37800000  0.38720000  0.01490000  1
  C  C855  1  0.37800000  0.48510000  0.38720000  1
  C  C856  1  0.38720000  0.01490000  0.37800000  1
  C  C857  1  0.38720000  0.12200000  0.01490000  1
  C  C858  1  0.38720000  0.37800000  0.48510000  1
  C  C859  1  0.38720000  0.48510000  0.12200000  1
  C  C860  1  0.38820000  0.08700000  0.51730000  1
  C  C861  1  0.38820000  0.41300000  0.98270000  1
  C  C862  1  0.38820000  0.51730000  0.41300000  1
  C  C863  1  0.38820000  0.98270000  0.08700000  1
  C  C864  1  0.38940000  0.22070000  0.84860000  1
  C  C865  1  0.38940000  0.27930000  0.65140000  1
  C  C866  1  0.38940000  0.65140000  0.22070000  1
  C  C867  1  0.38940000  0.84860000  0.27930000  1
  C  C868  1  0.39110000  0.05580000  0.17600000  1
  C  C869  1  0.39110000  0.17600000  0.44420000  1
  C  C870  1  0.39110000  0.32400000  0.05580000  1
  C  C871  1  0.39110000  0.44420000  0.32400000  1
  C  C872  1  0.40180000  0.02280000  0.14700000  1
  C  C873  1  0.40180000  0.14700000  0.47720000  1
  C  C874  1  0.40180000  0.35300000  0.02280000  1
  C  C875  1  0.40180000  0.47720000  0.35300000  1
  C  C876  1  0.40593000  0.14158000  0.64503000  1
  C  C877  1  0.40593000  0.35842000  0.85497000  1
  C  C878  1  0.40593000  0.64503000  0.35842000  1
  C  C879  1  0.40593000  0.85497000  0.14158000  1
  C  C880  1  0.40620000  0.07770000  0.96040000  1
  C  C881  1  0.40620000  0.42230000  0.53960000  1
  C  C882  1  0.40620000  0.53960000  0.07770000  1
  C  C883  1  0.40620000  0.96040000  0.42230000  1
  C  C884  1  0.40834000  0.15123000  0.85693000  1
  C  C885  1  0.40834000  0.34877000  0.64307000  1
  C  C886  1  0.40834000  0.64307000  0.15123000  1
  C  C887  1  0.40834000  0.85693000  0.34877000  1
  C  C888  1  0.41300000  0.11180000  0.98270000  1
  C  C889  1  0.41300000  0.38820000  0.51730000  1
  C  C890  1  0.41300000  0.51730000  0.11180000  1
  C  C891  1  0.41300000  0.98270000  0.38820000  1
  C  C892  1  0.41966000  0.19169000  0.85560000  1
  C  C893  1  0.41966000  0.30831000  0.64440000  1
  C  C894  1  0.41966000  0.64440000  0.19169000  1
  C  C895  1  0.41966000  0.85560000  0.30831000  1
  C  C896  1  0.42230000  0.09380000  0.53960000  1
  C  C897  1  0.42230000  0.40620000  0.96040000  1
  C  C898  1  0.42230000  0.53960000  0.40620000  1
  C  C899  1  0.42230000  0.96040000  0.09380000  1
  C  C900  1  0.43692000  0.00036000  0.15273000  1
  C  C901  1  0.43692000  0.15273000  0.49964000  1
  C  C902  1  0.43692000  0.34727000  0.00036000  1
  C  C903  1  0.43692000  0.49964000  0.34727000  1
  C  C904  1  0.44420000  0.10890000  0.32400000  1
  C  C905  1  0.44420000  0.17600000  0.10890000  1
  C  C906  1  0.44420000  0.32400000  0.39110000  1
  C  C907  1  0.44420000  0.39110000  0.17600000  1
  C  C908  1  0.44768000  0.12643000  0.53179000  1
  C  C909  1  0.44768000  0.37357000  0.96821000  1
  C  C910  1  0.44768000  0.53179000  0.37357000  1
  C  C911  1  0.44768000  0.96821000  0.12643000  1
  C  C912  1  0.46040000  0.57770000  0.90620000  1
  C  C913  1  0.46040000  0.59380000  0.57770000  1
  C  C914  1  0.46040000  0.90620000  0.92230000  1
  C  C915  1  0.46040000  0.92230000  0.59380000  1
  C  C916  1  0.46821000  0.55232000  0.87357000  1
  C  C917  1  0.46821000  0.62643000  0.55232000  1
  C  C918  1  0.46821000  0.87357000  0.94768000  1
  C  C919  1  0.46821000  0.94768000  0.62643000  1
  C  C920  1  0.47720000  0.09820000  0.35300000  1
  C  C921  1  0.47720000  0.14700000  0.09820000  1
  C  C922  1  0.47720000  0.35300000  0.40180000  1
  C  C923  1  0.47720000  0.40180000  0.14700000  1
  C  C924  1  0.48270000  0.58700000  0.61180000  1
  C  C925  1  0.48270000  0.61180000  0.91300000  1
  C  C926  1  0.48270000  0.88820000  0.58700000  1
  C  C927  1  0.48270000  0.91300000  0.88820000  1
  C  C928  1  0.48510000  0.11280000  0.12200000  1
  C  C929  1  0.48510000  0.12200000  0.38720000  1
  C  C930  1  0.48510000  0.37800000  0.11280000  1
  C  C931  1  0.48510000  0.38720000  0.37800000  1
  C  C932  1  0.49964000  0.06308000  0.34727000  1
  C  C933  1  0.49964000  0.15273000  0.06308000  1
  C  C934  1  0.49964000  0.34727000  0.43692000  1
  C  C935  1  0.49964000  0.43692000  0.15273000  1
  C  C936  1  0.50036000  0.56308000  0.84727000  1
  C  C937  1  0.50036000  0.65273000  0.56308000  1
  C  C938  1  0.50036000  0.84727000  0.93692000  1
  C  C939  1  0.50036000  0.93692000  0.65273000  1
  C  C940  1  0.51490000  0.61280000  0.62200000  1
  C  C941  1  0.51490000  0.62200000  0.88720000  1
  C  C942  1  0.51490000  0.87800000  0.61280000  1
  C  C943  1  0.51490000  0.88720000  0.87800000  1
  C  C944  1  0.51730000  0.08700000  0.11180000  1
  C  C945  1  0.51730000  0.11180000  0.41300000  1
  C  C946  1  0.51730000  0.38820000  0.08700000  1
  C  C947  1  0.51730000  0.41300000  0.38820000  1
  C  C948  1  0.52280000  0.59820000  0.85300000  1
  C  C949  1  0.52280000  0.64700000  0.59820000  1
  C  C950  1  0.52280000  0.85300000  0.90180000  1
  C  C951  1  0.52280000  0.90180000  0.64700000  1
  C  C952  1  0.53179000  0.05232000  0.37357000  1
  C  C953  1  0.53179000  0.12643000  0.05232000  1
  C  C954  1  0.53179000  0.37357000  0.44768000  1
  C  C955  1  0.53179000  0.44768000  0.12643000  1
  C  C956  1  0.53960000  0.07770000  0.40620000  1
  C  C957  1  0.53960000  0.09380000  0.07770000  1
  C  C958  1  0.53960000  0.40620000  0.42230000  1
  C  C959  1  0.53960000  0.42230000  0.09380000  1
  C  C960  1  0.55232000  0.03179000  0.87357000  1
  C  C961  1  0.55232000  0.46821000  0.62643000  1
  C  C962  1  0.55232000  0.62643000  0.03179000  1
  C  C963  1  0.55232000  0.87357000  0.46821000  1
  C  C964  1  0.55580000  0.60890000  0.82400000  1
  C  C965  1  0.55580000  0.67600000  0.60890000  1
  C  C966  1  0.55580000  0.82400000  0.89110000  1
  C  C967  1  0.55580000  0.89110000  0.67600000  1
  C  C968  1  0.56308000  0.50036000  0.65273000  1
  C  C969  1  0.56308000  0.65273000  0.99964000  1
  C  C970  1  0.56308000  0.84727000  0.50036000  1
  C  C971  1  0.56308000  0.99964000  0.84727000  1
  C  C972  1  0.57770000  0.03960000  0.90620000  1
  C  C973  1  0.57770000  0.46040000  0.59380000  1
  C  C974  1  0.57770000  0.59380000  0.03960000  1
  C  C975  1  0.57770000  0.90620000  0.46040000  1
  C  C976  1  0.58034000  0.14440000  0.69169000  1
  C  C977  1  0.58034000  0.35560000  0.80831000  1
  C  C978  1  0.58034000  0.69169000  0.35560000  1
  C  C979  1  0.58034000  0.80831000  0.14440000  1
  C  C980  1  0.58700000  0.01730000  0.61180000  1
  C  C981  1  0.58700000  0.48270000  0.88820000  1
  C  C982  1  0.58700000  0.61180000  0.48270000  1
  C  C983  1  0.58700000  0.88820000  0.01730000  1
  C  C984  1  0.59166000  0.14307000  0.65123000  1
  C  C985  1  0.59166000  0.35693000  0.84877000  1
  C  C986  1  0.59166000  0.65123000  0.35693000  1
  C  C987  1  0.59166000  0.84877000  0.14307000  1
  C  C988  1  0.59380000  0.03960000  0.57770000  1
  C  C989  1  0.59380000  0.46040000  0.92230000  1
  C  C990  1  0.59380000  0.57770000  0.46040000  1
  C  C991  1  0.59380000  0.92230000  0.03960000  1
  C  C992  1  0.59407000  0.14503000  0.85842000  1
  C  C993  1  0.59407000  0.35497000  0.64158000  1
  C  C994  1  0.59407000  0.64158000  0.14503000  1
  C  C995  1  0.59407000  0.85842000  0.35497000  1
  C  C996  1  0.59820000  0.52280000  0.64700000  1
  C  C997  1  0.59820000  0.64700000  0.97720000  1
  C  C998  1  0.59820000  0.85300000  0.52280000  1
  C  C999  1  0.59820000  0.97720000  0.85300000  1
  C  C1000  1  0.60890000  0.55580000  0.67600000  1
  C  C1001  1  0.60890000  0.67600000  0.94420000  1
  C  C1002  1  0.60890000  0.82400000  0.55580000  1
  C  C1003  1  0.60890000  0.94420000  0.82400000  1
  C  C1004  1  0.61060000  0.15140000  0.72070000  1
  C  C1005  1  0.61060000  0.34860000  0.77930000  1
  C  C1006  1  0.61060000  0.72070000  0.34860000  1
  C  C1007  1  0.61060000  0.77930000  0.15140000  1
  C  C1008  1  0.61180000  0.01730000  0.91300000  1
  C  C1009  1  0.61180000  0.48270000  0.58700000  1
  C  C1010  1  0.61180000  0.58700000  0.01730000  1
  C  C1011  1  0.61180000  0.91300000  0.48270000  1
  C  C1012  1  0.61280000  0.51490000  0.87800000  1
  C  C1013  1  0.61280000  0.62200000  0.51490000  1
  C  C1014  1  0.61280000  0.87800000  0.98510000  1
  C  C1015  1  0.61280000  0.98510000  0.62200000  1
  C  C1016  1  0.62200000  0.51490000  0.61280000  1
  C  C1017  1  0.62200000  0.61280000  0.98510000  1
  C  C1018  1  0.62200000  0.88720000  0.51490000  1
  C  C1019  1  0.62200000  0.98510000  0.88720000  1
  C  C1020  1  0.62643000  0.03179000  0.55232000  1
  C  C1021  1  0.62643000  0.46821000  0.94768000  1
  C  C1022  1  0.62643000  0.55232000  0.46821000  1
  C  C1023  1  0.62643000  0.94768000  0.03179000  1
  C  C1024  1  0.63134000  0.14670000  0.63882000  1
  C  C1025  1  0.63134000  0.35330000  0.86118000  1
  C  C1026  1  0.63134000  0.63882000  0.35330000  1
  C  C1027  1  0.63134000  0.86118000  0.14670000  1
  C  C1028  1  0.63882000  0.14670000  0.86866000  1
  C  C1029  1  0.63882000  0.35330000  0.63134000  1
  C  C1030  1  0.63882000  0.63134000  0.14670000  1
  C  C1031  1  0.63882000  0.86866000  0.35330000  1
  C  C1032  1  0.64158000  0.14503000  0.59407000  1
  C  C1033  1  0.64158000  0.35497000  0.90593000  1
  C  C1034  1  0.64158000  0.59407000  0.35497000  1
  C  C1035  1  0.64158000  0.90593000  0.14503000  1
  C  C1036  1  0.64307000  0.09166000  0.15123000  1
  C  C1037  1  0.64307000  0.15123000  0.40834000  1
  C  C1038  1  0.64307000  0.34877000  0.09166000  1
  C  C1039  1  0.64307000  0.40834000  0.34877000  1
  C  C1040  1  0.64440000  0.08034000  0.19169000  1
  C  C1041  1  0.64440000  0.19169000  0.41966000  1
  C  C1042  1  0.64440000  0.30831000  0.08034000  1
  C  C1043  1  0.64440000  0.41966000  0.30831000  1
  C  C1044  1  0.64503000  0.09407000  0.35842000  1
  C  C1045  1  0.64503000  0.14158000  0.09407000  1
  C  C1046  1  0.64503000  0.35842000  0.40593000  1
  C  C1047  1  0.64503000  0.40593000  0.14158000  1
  C  C1048  1  0.64670000  0.13134000  0.13882000  1
  C  C1049  1  0.64670000  0.13882000  0.36866000  1
  C  C1050  1  0.64670000  0.36118000  0.13134000  1
  C  C1051  1  0.64670000  0.36866000  0.36118000  1
  C  C1052  1  0.64700000  0.52280000  0.90180000  1
  C  C1053  1  0.64700000  0.59820000  0.52280000  1
  C  C1054  1  0.64700000  0.90180000  0.97720000  1
  C  C1055  1  0.64700000  0.97720000  0.59820000  1
  C  C1056  1  0.65090000  0.15490000  0.70860000  1
  C  C1057  1  0.65090000  0.34510000  0.79140000  1
  C  C1058  1  0.65090000  0.70860000  0.34510000  1
  C  C1059  1  0.65090000  0.79140000  0.15490000  1
  C  C1060  1  0.65123000  0.14307000  0.90834000  1
  C  C1061  1  0.65123000  0.35693000  0.59166000  1
  C  C1062  1  0.65123000  0.59166000  0.14307000  1
  C  C1063  1  0.65123000  0.90834000  0.35693000  1
  C  C1064  1  0.65140000  0.11060000  0.22070000  1
  C  C1065  1  0.65140000  0.22070000  0.38940000  1
  C  C1066  1  0.65140000  0.27930000  0.11060000  1
  C  C1067  1  0.65140000  0.38940000  0.27930000  1
  C  C1068  1  0.65270000  0.16120000  0.16830000  1
  C  C1069  1  0.65270000  0.16830000  0.33880000  1
  C  C1070  1  0.65270000  0.33170000  0.16120000  1
  C  C1071  1  0.65270000  0.33880000  0.33170000  1
  C  C1072  1  0.65273000  0.50036000  0.93692000  1
  C  C1073  1  0.65273000  0.56308000  0.50036000  1
  C  C1074  1  0.65273000  0.93692000  0.99964000  1
  C  C1075  1  0.65273000  0.99964000  0.56308000  1
  C  C1076  1  0.65490000  0.15090000  0.20860000  1
  C  C1077  1  0.65490000  0.20860000  0.34910000  1
  C  C1078  1  0.65490000  0.29140000  0.15090000  1
  C  C1079  1  0.65490000  0.34910000  0.29140000  1
  C  C1080  1  0.66120000  0.15270000  0.66830000  1
  C  C1081  1  0.66120000  0.34730000  0.83170000  1
  C  C1082  1  0.66120000  0.66830000  0.34730000  1
  C  C1083  1  0.66120000  0.83170000  0.15270000  1
  C  C1084  1  0.66830000  0.15270000  0.83880000  1
  C  C1085  1  0.66830000  0.34730000  0.66120000  1
  C  C1086  1  0.66830000  0.66120000  0.15270000  1
  C  C1087  1  0.66830000  0.83880000  0.34730000  1
  C  C1088  1  0.67600000  0.55580000  0.89110000  1
  C  C1089  1  0.67600000  0.60890000  0.55580000  1
  C  C1090  1  0.67600000  0.89110000  0.94420000  1
  C  C1091  1  0.67600000  0.94420000  0.60890000  1
  C  C1092  1  0.69169000  0.14440000  0.91966000  1
  C  C1093  1  0.69169000  0.35560000  0.58034000  1
  C  C1094  1  0.69169000  0.58034000  0.14440000  1
  C  C1095  1  0.69169000  0.91966000  0.35560000  1
  C  C1096  1  0.70860000  0.15490000  0.84910000  1
  C  C1097  1  0.70860000  0.34510000  0.65090000  1
  C  C1098  1  0.70860000  0.65090000  0.15490000  1
  C  C1099  1  0.70860000  0.84910000  0.34510000  1
  C  C1100  1  0.72070000  0.15140000  0.88940000  1
  C  C1101  1  0.72070000  0.34860000  0.61060000  1
  C  C1102  1  0.72070000  0.61060000  0.15140000  1
  C  C1103  1  0.72070000  0.88940000  0.34860000  1
  C  C1104  1  0.77930000  0.15140000  0.61060000  1
  C  C1105  1  0.77930000  0.34860000  0.88940000  1
  C  C1106  1  0.77930000  0.61060000  0.34860000  1
  C  C1107  1  0.77930000  0.88940000  0.15140000  1
  C  C1108  1  0.79140000  0.15490000  0.65090000  1
  C  C1109  1  0.79140000  0.34510000  0.84910000  1
  C  C1110  1  0.79140000  0.65090000  0.34510000  1
  C  C1111  1  0.79140000  0.84910000  0.15490000  1
  C  C1112  1  0.80831000  0.14440000  0.58034000  1
  C  C1113  1  0.80831000  0.35560000  0.91966000  1
  C  C1114  1  0.80831000  0.58034000  0.35560000  1
  C  C1115  1  0.80831000  0.91966000  0.14440000  1
  C  C1116  1  0.82400000  0.55580000  0.60890000  1
  C  C1117  1  0.82400000  0.60890000  0.94420000  1
  C  C1118  1  0.82400000  0.89110000  0.55580000  1
  C  C1119  1  0.82400000  0.94420000  0.89110000  1
  C  C1120  1  0.83170000  0.15270000  0.66120000  1
  C  C1121  1  0.83170000  0.34730000  0.83880000  1
  C  C1122  1  0.83170000  0.66120000  0.34730000  1
  C  C1123  1  0.83170000  0.83880000  0.15270000  1
  C  C1124  1  0.83880000  0.15270000  0.83170000  1
  C  C1125  1  0.83880000  0.34730000  0.66830000  1
  C  C1126  1  0.83880000  0.66830000  0.15270000  1
  C  C1127  1  0.83880000  0.83170000  0.34730000  1
  C  C1128  1  0.84510000  0.15090000  0.29140000  1
  C  C1129  1  0.84510000  0.20860000  0.15090000  1
  C  C1130  1  0.84510000  0.29140000  0.34910000  1
  C  C1131  1  0.84510000  0.34910000  0.20860000  1
  C  C1132  1  0.84727000  0.50036000  0.56308000  1
  C  C1133  1  0.84727000  0.56308000  0.99964000  1
  C  C1134  1  0.84727000  0.93692000  0.50036000  1
  C  C1135  1  0.84727000  0.99964000  0.93692000  1
  C  C1136  1  0.84730000  0.16120000  0.33170000  1
  C  C1137  1  0.84730000  0.16830000  0.16120000  1
  C  C1138  1  0.84730000  0.33170000  0.33880000  1
  C  C1139  1  0.84730000  0.33880000  0.16830000  1
  C  C1140  1  0.84860000  0.11060000  0.27930000  1
  C  C1141  1  0.84860000  0.22070000  0.11060000  1
  C  C1142  1  0.84860000  0.27930000  0.38940000  1
  C  C1143  1  0.84860000  0.38940000  0.22070000  1
  C  C1144  1  0.84877000  0.14307000  0.59166000  1
  C  C1145  1  0.84877000  0.35693000  0.90834000  1
  C  C1146  1  0.84877000  0.59166000  0.35693000  1
  C  C1147  1  0.84877000  0.90834000  0.14307000  1
  C  C1148  1  0.84910000  0.15490000  0.79140000  1
  C  C1149  1  0.84910000  0.34510000  0.70860000  1
  C  C1150  1  0.84910000  0.70860000  0.15490000  1
  C  C1151  1  0.84910000  0.79140000  0.34510000  1
  C  C1152  1  0.85300000  0.52280000  0.59820000  1
  C  C1153  1  0.85300000  0.59820000  0.97720000  1
  C  C1154  1  0.85300000  0.90180000  0.52280000  1
  C  C1155  1  0.85300000  0.97720000  0.90180000  1
  C  C1156  1  0.85330000  0.13134000  0.36118000  1
  C  C1157  1  0.85330000  0.13882000  0.13134000  1
  C  C1158  1  0.85330000  0.36118000  0.36866000  1
  C  C1159  1  0.85330000  0.36866000  0.13882000  1
  C  C1160  1  0.85497000  0.09407000  0.14158000  1
  C  C1161  1  0.85497000  0.14158000  0.40593000  1
  C  C1162  1  0.85497000  0.35842000  0.09407000  1
  C  C1163  1  0.85497000  0.40593000  0.35842000  1
  C  C1164  1  0.85560000  0.08034000  0.30831000  1
  C  C1165  1  0.85560000  0.19169000  0.08034000  1
  C  C1166  1  0.85560000  0.30831000  0.41966000  1
  C  C1167  1  0.85560000  0.41966000  0.19169000  1
  C  C1168  1  0.85693000  0.09166000  0.34877000  1
  C  C1169  1  0.85693000  0.15123000  0.09166000  1
  C  C1170  1  0.85693000  0.34877000  0.40834000  1
  C  C1171  1  0.85693000  0.40834000  0.15123000  1
  C  C1172  1  0.85842000  0.14503000  0.90593000  1
  C  C1173  1  0.85842000  0.35497000  0.59407000  1
  C  C1174  1  0.85842000  0.59407000  0.14503000  1
  C  C1175  1  0.85842000  0.90593000  0.35497000  1
  C  C1176  1  0.86118000  0.14670000  0.63134000  1
  C  C1177  1  0.86118000  0.35330000  0.86866000  1
  C  C1178  1  0.86118000  0.63134000  0.35330000  1
  C  C1179  1  0.86118000  0.86866000  0.14670000  1
  C  C1180  1  0.86866000  0.14670000  0.86118000  1
  C  C1181  1  0.86866000  0.35330000  0.63882000  1
  C  C1182  1  0.86866000  0.63882000  0.14670000  1
  C  C1183  1  0.86866000  0.86118000  0.35330000  1
  C  C1184  1  0.87357000  0.03179000  0.94768000  1
  C  C1185  1  0.87357000  0.46821000  0.55232000  1
  C  C1186  1  0.87357000  0.55232000  0.03179000  1
  C  C1187  1  0.87357000  0.94768000  0.46821000  1
  C  C1188  1  0.87800000  0.51490000  0.88720000  1
  C  C1189  1  0.87800000  0.61280000  0.51490000  1
  C  C1190  1  0.87800000  0.88720000  0.98510000  1
  C  C1191  1  0.87800000  0.98510000  0.61280000  1
  C  C1192  1  0.88720000  0.51490000  0.62200000  1
  C  C1193  1  0.88720000  0.62200000  0.98510000  1
  C  C1194  1  0.88720000  0.87800000  0.51490000  1
  C  C1195  1  0.88720000  0.98510000  0.87800000  1
  C  C1196  1  0.88820000  0.01730000  0.58700000  1
  C  C1197  1  0.88820000  0.48270000  0.91300000  1
  C  C1198  1  0.88820000  0.58700000  0.48270000  1
  C  C1199  1  0.88820000  0.91300000  0.01730000  1
  C  C1200  1  0.88940000  0.15140000  0.77930000  1
  C  C1201  1  0.88940000  0.34860000  0.72070000  1
  C  C1202  1  0.88940000  0.72070000  0.15140000  1
  C  C1203  1  0.88940000  0.77930000  0.34860000  1
  C  C1204  1  0.89110000  0.55580000  0.82400000  1
  C  C1205  1  0.89110000  0.67600000  0.55580000  1
  C  C1206  1  0.89110000  0.82400000  0.94420000  1
  C  C1207  1  0.89110000  0.94420000  0.67600000  1
  C  C1208  1  0.90180000  0.52280000  0.85300000  1
  C  C1209  1  0.90180000  0.64700000  0.52280000  1
  C  C1210  1  0.90180000  0.85300000  0.97720000  1
  C  C1211  1  0.90180000  0.97720000  0.64700000  1
  C  C1212  1  0.90593000  0.14503000  0.64158000  1
  C  C1213  1  0.90593000  0.35497000  0.85842000  1
  C  C1214  1  0.90593000  0.64158000  0.35497000  1
  C  C1215  1  0.90593000  0.85842000  0.14503000  1
  C  C1216  1  0.90620000  0.03960000  0.92230000  1
  C  C1217  1  0.90620000  0.46040000  0.57770000  1
  C  C1218  1  0.90620000  0.57770000  0.03960000  1
  C  C1219  1  0.90620000  0.92230000  0.46040000  1
  C  C1220  1  0.90834000  0.14307000  0.84877000  1
  C  C1221  1  0.90834000  0.35693000  0.65123000  1
  C  C1222  1  0.90834000  0.65123000  0.14307000  1
  C  C1223  1  0.90834000  0.84877000  0.35693000  1
  C  C1224  1  0.91300000  0.01730000  0.88820000  1
  C  C1225  1  0.91300000  0.48270000  0.61180000  1
  C  C1226  1  0.91300000  0.61180000  0.01730000  1
  C  C1227  1  0.91300000  0.88820000  0.48270000  1
  C  C1228  1  0.91966000  0.14440000  0.80831000  1
  C  C1229  1  0.91966000  0.35560000  0.69169000  1
  C  C1230  1  0.91966000  0.69169000  0.14440000  1
  C  C1231  1  0.91966000  0.80831000  0.35560000  1
  C  C1232  1  0.92230000  0.03960000  0.59380000  1
  C  C1233  1  0.92230000  0.46040000  0.90620000  1
  C  C1234  1  0.92230000  0.59380000  0.46040000  1
  C  C1235  1  0.92230000  0.90620000  0.03960000  1
  C  C1236  1  0.93692000  0.50036000  0.84727000  1
  C  C1237  1  0.93692000  0.65273000  0.50036000  1
  C  C1238  1  0.93692000  0.84727000  0.99964000  1
  C  C1239  1  0.93692000  0.99964000  0.65273000  1
  C  C1240  1  0.94420000  0.60890000  0.67600000  1
  C  C1241  1  0.94420000  0.67600000  0.89110000  1
  C  C1242  1  0.94420000  0.82400000  0.60890000  1
  C  C1243  1  0.94420000  0.89110000  0.82400000  1
  C  C1244  1  0.94768000  0.03179000  0.62643000  1
  C  C1245  1  0.94768000  0.46821000  0.87357000  1
  C  C1246  1  0.94768000  0.62643000  0.46821000  1
  C  C1247  1  0.94768000  0.87357000  0.03179000  1
  C  C1248  1  0.96040000  0.07770000  0.09380000  1
  C  C1249  1  0.96040000  0.09380000  0.42230000  1
  C  C1250  1  0.96040000  0.40620000  0.07770000  1
  C  C1251  1  0.96040000  0.42230000  0.40620000  1
  C  C1252  1  0.96821000  0.05232000  0.12643000  1
  C  C1253  1  0.96821000  0.12643000  0.44768000  1
  C  C1254  1  0.96821000  0.37357000  0.05232000  1
  C  C1255  1  0.96821000  0.44768000  0.37357000  1
  C  C1256  1  0.97720000  0.59820000  0.64700000  1
  C  C1257  1  0.97720000  0.64700000  0.90180000  1
  C  C1258  1  0.97720000  0.85300000  0.59820000  1
  C  C1259  1  0.97720000  0.90180000  0.85300000  1
  C  C1260  1  0.98270000  0.08700000  0.38820000  1
  C  C1261  1  0.98270000  0.11180000  0.08700000  1
  C  C1262  1  0.98270000  0.38820000  0.41300000  1
  C  C1263  1  0.98270000  0.41300000  0.11180000  1
  C  C1264  1  0.98510000  0.61280000  0.87800000  1
  C  C1265  1  0.98510000  0.62200000  0.61280000  1
  C  C1266  1  0.98510000  0.87800000  0.88720000  1
  C  C1267  1  0.98510000  0.88720000  0.62200000  1
  C  C1268  1  0.99964000  0.56308000  0.65273000  1
  C  C1269  1  0.99964000  0.65273000  0.93692000  1
  C  C1270  1  0.99964000  0.84727000  0.56308000  1
  C  C1271  1  0.99964000  0.93692000  0.84727000  1
  O  O1272  1  0.00428000  0.08485000  0.59788000  1
  O  O1273  1  0.00428000  0.41515000  0.90212000  1
  O  O1274  1  0.00428000  0.59788000  0.41515000  1
  O  O1275  1  0.00428000  0.90212000  0.08485000  1
  O  O1276  1  0.00481000  0.18447000  0.67393000  1
  O  O1277  1  0.00481000  0.31553000  0.82607000  1
  O  O1278  1  0.00481000  0.67393000  0.31553000  1
  O  O1279  1  0.00481000  0.82607000  0.18447000  1
  O  O1280  1  0.00886000  0.17394000  0.91635000  1
  O  O1281  1  0.00886000  0.32606000  0.58365000  1
  O  O1282  1  0.00886000  0.58365000  0.17394000  1
  O  O1283  1  0.00886000  0.91635000  0.32606000  1
  O  O1284  1  0.01397000  0.18623000  0.59745000  1
  O  O1285  1  0.01397000  0.31377000  0.90255000  1
  O  O1286  1  0.01397000  0.59745000  0.31377000  1
  O  O1287  1  0.01397000  0.90255000  0.18623000  1
  O  O1288  1  0.02229000  0.24992000  0.63893000  1
  O  O1289  1  0.02229000  0.25008000  0.86107000  1
  O  O1290  1  0.02229000  0.63893000  0.25008000  1
  O  O1291  1  0.02229000  0.86107000  0.24992000  1
  O  O1292  1  0.02519000  0.02677000  0.85866000  1
  O  O1293  1  0.02519000  0.47323000  0.64134000  1
  O  O1294  1  0.02519000  0.64134000  0.02677000  1
  O  O1295  1  0.02519000  0.85866000  0.47323000  1
  O  O1296  1  0.02677000  0.02519000  0.64134000  1
  O  O1297  1  0.02677000  0.47481000  0.85866000  1
  O  O1298  1  0.02677000  0.64134000  0.47481000  1
  O  O1299  1  0.02677000  0.85866000  0.02519000  1
  O  O1300  1  0.06140000  0.08540000  0.20613000  1
  O  O1301  1  0.06140000  0.20613000  0.41460000  1
  O  O1302  1  0.06140000  0.29387000  0.08540000  1
  O  O1303  1  0.06140000  0.41460000  0.29387000  1
  O  O1304  1  0.06999000  0.11223000  0.85656000  1
  O  O1305  1  0.06999000  0.38777000  0.64344000  1
  O  O1306  1  0.06999000  0.64344000  0.11223000  1
  O  O1307  1  0.06999000  0.85656000  0.38777000  1
  O  O1308  1  0.07440000  0.14180000  0.17250000  1
  O  O1309  1  0.07440000  0.17250000  0.35820000  1
  O  O1310  1  0.07440000  0.32750000  0.14180000  1
  O  O1311  1  0.07440000  0.35820000  0.32750000  1
  O  O1312  1  0.08365000  0.50886000  0.67394000  1
  O  O1313  1  0.08365000  0.67394000  0.99114000  1
  O  O1314  1  0.08365000  0.82606000  0.50886000  1
  O  O1315  1  0.08365000  0.99114000  0.82606000  1
  O  O1316  1  0.08417000  0.17848000  0.85517000  1
  O  O1317  1  0.08417000  0.32152000  0.64483000  1
  O  O1318  1  0.08417000  0.64483000  0.17848000  1
  O  O1319  1  0.08417000  0.85517000  0.32152000  1
  O  O1320  1  0.08485000  0.00428000  0.90212000  1
  O  O1321  1  0.08485000  0.49572000  0.59788000  1
  O  O1322  1  0.08485000  0.59788000  0.00428000  1
  O  O1323  1  0.08485000  0.90212000  0.49572000  1
  O  O1324  1  0.08540000  0.06140000  0.29387000  1
  O  O1325  1  0.08540000  0.20613000  0.06140000  1
  O  O1326  1  0.08540000  0.29387000  0.43860000  1
  O  O1327  1  0.08540000  0.43860000  0.20613000  1
  O  O1328  1  0.09745000  0.51397000  0.81377000  1
  O  O1329  1  0.09745000  0.68623000  0.51397000  1
  O  O1330  1  0.09745000  0.81377000  0.98603000  1
  O  O1331  1  0.09745000  0.98603000  0.68623000  1
  O  O1332  1  0.09788000  0.50428000  0.91515000  1
  O  O1333  1  0.09788000  0.58485000  0.50428000  1
  O  O1334  1  0.09788000  0.91515000  0.99572000  1
  O  O1335  1  0.09788000  0.99572000  0.58485000  1
  O  O1336  1  0.11223000  0.06999000  0.64344000  1
  O  O1337  1  0.11223000  0.43001000  0.85656000  1
  O  O1338  1  0.11223000  0.64344000  0.43001000  1
  O  O1339  1  0.11223000  0.85656000  0.06999000  1
  O  O1340  1  0.13893000  0.52229000  0.75008000  1
  O  O1341  1  0.13893000  0.74992000  0.52229000  1
  O  O1342  1  0.13893000  0.75008000  0.97771000  1
  O  O1343  1  0.13893000  0.97771000  0.74992000  1
  O  O1344  1  0.14134000  0.52519000  0.52677000  1
  O  O1345  1  0.14134000  0.52677000  0.97481000  1
  O  O1346  1  0.14134000  0.97323000  0.52519000  1
  O  O1347  1  0.14134000  0.97481000  0.97323000  1
  O  O1348  1  0.14180000  0.07440000  0.32750000  1
  O  O1349  1  0.14180000  0.17250000  0.07440000  1
  O  O1350  1  0.14180000  0.32750000  0.42560000  1
  O  O1351  1  0.14180000  0.42560000  0.17250000  1
  O  O1352  1  0.14344000  0.56999000  0.61223000  1
  O  O1353  1  0.14344000  0.61223000  0.93001000  1
  O  O1354  1  0.14344000  0.88777000  0.56999000  1
  O  O1355  1  0.14344000  0.93001000  0.88777000  1
  O  O1356  1  0.14483000  0.58417000  0.67848000  1
  O  O1357  1  0.14483000  0.67848000  0.91583000  1
  O  O1358  1  0.14483000  0.82152000  0.58417000  1
  O  O1359  1  0.14483000  0.91583000  0.82152000  1
  O  O1360  1  0.17250000  0.07440000  0.14180000  1
  O  O1361  1  0.17250000  0.14180000  0.42560000  1
  O  O1362  1  0.17250000  0.35820000  0.07440000  1
  O  O1363  1  0.17250000  0.42560000  0.35820000  1
  O  O1364  1  0.17393000  0.50481000  0.81553000  1
  O  O1365  1  0.17393000  0.68447000  0.50481000  1
  O  O1366  1  0.17393000  0.81553000  0.99519000  1
  O  O1367  1  0.17393000  0.99519000  0.68447000  1
  O  O1368  1  0.17394000  0.00886000  0.58365000  1
  O  O1369  1  0.17394000  0.49114000  0.91635000  1
  O  O1370  1  0.17394000  0.58365000  0.49114000  1
  O  O1371  1  0.17394000  0.91635000  0.00886000  1
  O  O1372  1  0.17848000  0.08417000  0.64483000  1
  O  O1373  1  0.17848000  0.41583000  0.85517000  1
  O  O1374  1  0.17848000  0.64483000  0.41583000  1
  O  O1375  1  0.17848000  0.85517000  0.08417000  1
  O  O1376  1  0.18447000  0.00481000  0.82607000  1
  O  O1377  1  0.18447000  0.49519000  0.67393000  1
  O  O1378  1  0.18447000  0.67393000  0.00481000  1
  O  O1379  1  0.18447000  0.82607000  0.49519000  1
  O  O1380  1  0.18623000  0.01397000  0.90255000  1
  O  O1381  1  0.18623000  0.48603000  0.59745000  1
  O  O1382  1  0.18623000  0.59745000  0.01397000  1
  O  O1383  1  0.18623000  0.90255000  0.48603000  1
  O  O1384  1  0.20613000  0.06140000  0.08540000  1
  O  O1385  1  0.20613000  0.08540000  0.43860000  1
  O  O1386  1  0.20613000  0.41460000  0.06140000  1
  O  O1387  1  0.20613000  0.43860000  0.41460000  1
  O  O1388  1  0.24992000  0.02229000  0.86107000  1
  O  O1389  1  0.24992000  0.47771000  0.63893000  1
  O  O1390  1  0.24992000  0.63893000  0.02229000  1
  O  O1391  1  0.24992000  0.86107000  0.47771000  1
  O  O1392  1  0.25008000  0.02229000  0.63893000  1
  O  O1393  1  0.25008000  0.47771000  0.86107000  1
  O  O1394  1  0.25008000  0.63893000  0.47771000  1
  O  O1395  1  0.25008000  0.86107000  0.02229000  1
  O  O1396  1  0.29387000  0.06140000  0.41460000  1
  O  O1397  1  0.29387000  0.08540000  0.06140000  1
  O  O1398  1  0.29387000  0.41460000  0.43860000  1
  O  O1399  1  0.29387000  0.43860000  0.08540000  1
  O  O1400  1  0.31377000  0.01397000  0.59745000  1
  O  O1401  1  0.31377000  0.48603000  0.90255000  1
  O  O1402  1  0.31377000  0.59745000  0.48603000  1
  O  O1403  1  0.31377000  0.90255000  0.01397000  1
  O  O1404  1  0.31553000  0.00481000  0.67393000  1
  O  O1405  1  0.31553000  0.49519000  0.82607000  1
  O  O1406  1  0.31553000  0.67393000  0.49519000  1
  O  O1407  1  0.31553000  0.82607000  0.00481000  1
  O  O1408  1  0.32152000  0.08417000  0.85517000  1
  O  O1409  1  0.32152000  0.41583000  0.64483000  1
  O  O1410  1  0.32152000  0.64483000  0.08417000  1
  O  O1411  1  0.32152000  0.85517000  0.41583000  1
  O  O1412  1  0.32606000  0.00886000  0.91635000  1
  O  O1413  1  0.32606000  0.49114000  0.58365000  1
  O  O1414  1  0.32606000  0.58365000  0.00886000  1
  O  O1415  1  0.32606000  0.91635000  0.49114000  1
  O  O1416  1  0.32607000  0.50481000  0.68447000  1
  O  O1417  1  0.32607000  0.68447000  0.99519000  1
  O  O1418  1  0.32607000  0.81553000  0.50481000  1
  O  O1419  1  0.32607000  0.99519000  0.81553000  1
  O  O1420  1  0.32750000  0.07440000  0.35820000  1
  O  O1421  1  0.32750000  0.14180000  0.07440000  1
  O  O1422  1  0.32750000  0.35820000  0.42560000  1
  O  O1423  1  0.32750000  0.42560000  0.14180000  1
  O  O1424  1  0.35517000  0.58417000  0.82152000  1
  O  O1425  1  0.35517000  0.67848000  0.58417000  1
  O  O1426  1  0.35517000  0.82152000  0.91583000  1
  O  O1427  1  0.35517000  0.91583000  0.67848000  1
  O  O1428  1  0.35656000  0.56999000  0.88777000  1
  O  O1429  1  0.35656000  0.61223000  0.56999000  1
  O  O1430  1  0.35656000  0.88777000  0.93001000  1
  O  O1431  1  0.35656000  0.93001000  0.61223000  1
  O  O1432  1  0.35820000  0.07440000  0.17250000  1
  O  O1433  1  0.35820000  0.17250000  0.42560000  1
  O  O1434  1  0.35820000  0.32750000  0.07440000  1
  O  O1435  1  0.35820000  0.42560000  0.32750000  1
  O  O1436  1  0.35866000  0.52519000  0.97323000  1
  O  O1437  1  0.35866000  0.52677000  0.52519000  1
  O  O1438  1  0.35866000  0.97323000  0.97481000  1
  O  O1439  1  0.35866000  0.97481000  0.52677000  1
  O  O1440  1  0.36107000  0.52229000  0.74992000  1
  O  O1441  1  0.36107000  0.74992000  0.97771000  1
  O  O1442  1  0.36107000  0.75008000  0.52229000  1
  O  O1443  1  0.36107000  0.97771000  0.75008000  1
  O  O1444  1  0.38777000  0.06999000  0.85656000  1
  O  O1445  1  0.38777000  0.43001000  0.64344000  1
  O  O1446  1  0.38777000  0.64344000  0.06999000  1
  O  O1447  1  0.38777000  0.85656000  0.43001000  1
  O  O1448  1  0.40212000  0.50428000  0.58485000  1
  O  O1449  1  0.40212000  0.58485000  0.99572000  1
  O  O1450  1  0.40212000  0.91515000  0.50428000  1
  O  O1451  1  0.40212000  0.99572000  0.91515000  1
  O  O1452  1  0.40255000  0.51397000  0.68623000  1
  O  O1453  1  0.40255000  0.68623000  0.98603000  1
  O  O1454  1  0.40255000  0.81377000  0.51397000  1
  O  O1455  1  0.40255000  0.98603000  0.81377000  1
  O  O1456  1  0.41460000  0.06140000  0.20613000  1
  O  O1457  1  0.41460000  0.20613000  0.43860000  1
  O  O1458  1  0.41460000  0.29387000  0.06140000  1
  O  O1459  1  0.41460000  0.43860000  0.29387000  1
  O  O1460  1  0.41515000  0.00428000  0.59788000  1
  O  O1461  1  0.41515000  0.49572000  0.90212000  1
  O  O1462  1  0.41515000  0.59788000  0.49572000  1
  O  O1463  1  0.41515000  0.90212000  0.00428000  1
  O  O1464  1  0.41583000  0.17848000  0.64483000  1
  O  O1465  1  0.41583000  0.32152000  0.85517000  1
  O  O1466  1  0.41583000  0.64483000  0.32152000  1
  O  O1467  1  0.41583000  0.85517000  0.17848000  1
  O  O1468  1  0.41635000  0.50886000  0.82606000  1
  O  O1469  1  0.41635000  0.67394000  0.50886000  1
  O  O1470  1  0.41635000  0.82606000  0.99114000  1
  O  O1471  1  0.41635000  0.99114000  0.67394000  1
  O  O1472  1  0.42560000  0.14180000  0.32750000  1
  O  O1473  1  0.42560000  0.17250000  0.14180000  1
  O  O1474  1  0.42560000  0.32750000  0.35820000  1
  O  O1475  1  0.42560000  0.35820000  0.17250000  1
  O  O1476  1  0.43001000  0.11223000  0.64344000  1
  O  O1477  1  0.43001000  0.38777000  0.85656000  1
  O  O1478  1  0.43001000  0.64344000  0.38777000  1
  O  O1479  1  0.43001000  0.85656000  0.11223000  1
  O  O1480  1  0.43860000  0.08540000  0.29387000  1
  O  O1481  1  0.43860000  0.20613000  0.08540000  1
  O  O1482  1  0.43860000  0.29387000  0.41460000  1
  O  O1483  1  0.43860000  0.41460000  0.20613000  1
  O  O1484  1  0.47323000  0.02519000  0.85866000  1
  O  O1485  1  0.47323000  0.47481000  0.64134000  1
  O  O1486  1  0.47323000  0.64134000  0.02519000  1
  O  O1487  1  0.47323000  0.85866000  0.47481000  1
  O  O1488  1  0.47481000  0.02677000  0.64134000  1
  O  O1489  1  0.47481000  0.47323000  0.85866000  1
  O  O1490  1  0.47481000  0.64134000  0.47323000  1
  O  O1491  1  0.47481000  0.85866000  0.02677000  1
  O  O1492  1  0.47771000  0.24992000  0.86107000  1
  O  O1493  1  0.47771000  0.25008000  0.63893000  1
  O  O1494  1  0.47771000  0.63893000  0.24992000  1
  O  O1495  1  0.47771000  0.86107000  0.25008000  1
  O  O1496  1  0.48603000  0.18623000  0.90255000  1
  O  O1497  1  0.48603000  0.31377000  0.59745000  1
  O  O1498  1  0.48603000  0.59745000  0.18623000  1
  O  O1499  1  0.48603000  0.90255000  0.31377000  1
  O  O1500  1  0.49114000  0.17394000  0.58365000  1
  O  O1501  1  0.49114000  0.32606000  0.91635000  1
  O  O1502  1  0.49114000  0.58365000  0.32606000  1
  O  O1503  1  0.49114000  0.91635000  0.17394000  1
  O  O1504  1  0.49519000  0.18447000  0.82607000  1
  O  O1505  1  0.49519000  0.31553000  0.67393000  1
  O  O1506  1  0.49519000  0.67393000  0.18447000  1
  O  O1507  1  0.49519000  0.82607000  0.31553000  1
  O  O1508  1  0.49572000  0.08485000  0.90212000  1
  O  O1509  1  0.49572000  0.41515000  0.59788000  1
  O  O1510  1  0.49572000  0.59788000  0.08485000  1
  O  O1511  1  0.49572000  0.90212000  0.41515000  1
  O  O1512  1  0.50428000  0.09788000  0.58485000  1
  O  O1513  1  0.50428000  0.40212000  0.91515000  1
  O  O1514  1  0.50428000  0.58485000  0.40212000  1
  O  O1515  1  0.50428000  0.91515000  0.09788000  1
  O  O1516  1  0.50481000  0.17393000  0.68447000  1
  O  O1517  1  0.50481000  0.32607000  0.81553000  1
  O  O1518  1  0.50481000  0.68447000  0.32607000  1
  O  O1519  1  0.50481000  0.81553000  0.17393000  1
  O  O1520  1  0.50886000  0.08365000  0.82606000  1
  O  O1521  1  0.50886000  0.41635000  0.67394000  1
  O  O1522  1  0.50886000  0.67394000  0.08365000  1
  O  O1523  1  0.50886000  0.82606000  0.41635000  1
  O  O1524  1  0.51397000  0.09745000  0.68623000  1
  O  O1525  1  0.51397000  0.40255000  0.81377000  1
  O  O1526  1  0.51397000  0.68623000  0.40255000  1
  O  O1527  1  0.51397000  0.81377000  0.09745000  1
  O  O1528  1  0.52229000  0.13893000  0.74992000  1
  O  O1529  1  0.52229000  0.36107000  0.75008000  1
  O  O1530  1  0.52229000  0.74992000  0.36107000  1
  O  O1531  1  0.52229000  0.75008000  0.13893000  1
  O  O1532  1  0.52519000  0.14134000  0.97323000  1
  O  O1533  1  0.52519000  0.35866000  0.52677000  1
  O  O1534  1  0.52519000  0.52677000  0.14134000  1
  O  O1535  1  0.52519000  0.97323000  0.35866000  1
  O  O1536  1  0.52677000  0.14134000  0.52519000  1
  O  O1537  1  0.52677000  0.35866000  0.97481000  1
  O  O1538  1  0.52677000  0.52519000  0.35866000  1
  O  O1539  1  0.52677000  0.97481000  0.14134000  1
  O  O1540  1  0.56140000  0.58540000  0.79387000  1
  O  O1541  1  0.56140000  0.70613000  0.58540000  1
  O  O1542  1  0.56140000  0.79387000  0.91460000  1
  O  O1543  1  0.56140000  0.91460000  0.70613000  1
  O  O1544  1  0.56999000  0.14344000  0.88777000  1
  O  O1545  1  0.56999000  0.35656000  0.61223000  1
  O  O1546  1  0.56999000  0.61223000  0.14344000  1
  O  O1547  1  0.56999000  0.88777000  0.35656000  1
  O  O1548  1  0.57440000  0.64180000  0.82750000  1
  O  O1549  1  0.57440000  0.67250000  0.64180000  1
  O  O1550  1  0.57440000  0.82750000  0.85820000  1
  O  O1551  1  0.57440000  0.85820000  0.67250000  1
  O  O1552  1  0.58365000  0.00886000  0.32606000  1
  O  O1553  1  0.58365000  0.17394000  0.00886000  1
  O  O1554  1  0.58365000  0.32606000  0.49114000  1
  O  O1555  1  0.58365000  0.49114000  0.17394000  1
  O  O1556  1  0.58417000  0.14483000  0.82152000  1
  O  O1557  1  0.58417000  0.35517000  0.67848000  1
  O  O1558  1  0.58417000  0.67848000  0.14483000  1
  O  O1559  1  0.58417000  0.82152000  0.35517000  1
  O  O1560  1  0.58485000  0.09788000  0.99572000  1
  O  O1561  1  0.58485000  0.40212000  0.50428000  1
  O  O1562  1  0.58485000  0.50428000  0.09788000  1
  O  O1563  1  0.58485000  0.99572000  0.40212000  1
  O  O1564  1  0.58540000  0.56140000  0.70613000  1
  O  O1565  1  0.58540000  0.70613000  0.93860000  1
  O  O1566  1  0.58540000  0.79387000  0.56140000  1
  O  O1567  1  0.58540000  0.93860000  0.79387000  1
  O  O1568  1  0.59745000  0.01397000  0.18623000  1
  O  O1569  1  0.59745000  0.18623000  0.48603000  1
  O  O1570  1  0.59745000  0.31377000  0.01397000  1
  O  O1571  1  0.59745000  0.48603000  0.31377000  1
  O  O1572  1  0.59788000  0.00428000  0.08485000  1
  O  O1573  1  0.59788000  0.08485000  0.49572000  1
  O  O1574  1  0.59788000  0.41515000  0.00428000  1
  O  O1575  1  0.59788000  0.49572000  0.41515000  1
  O  O1576  1  0.61223000  0.14344000  0.56999000  1
  O  O1577  1  0.61223000  0.35656000  0.93001000  1
  O  O1578  1  0.61223000  0.56999000  0.35656000  1
  O  O1579  1  0.61223000  0.93001000  0.14344000  1
  O  O1580  1  0.63893000  0.02229000  0.24992000  1
  O  O1581  1  0.63893000  0.24992000  0.47771000  1
  O  O1582  1  0.63893000  0.25008000  0.02229000  1
  O  O1583  1  0.63893000  0.47771000  0.25008000  1
  O  O1584  1  0.64134000  0.02519000  0.47323000  1
  O  O1585  1  0.64134000  0.02677000  0.02519000  1
  O  O1586  1  0.64134000  0.47323000  0.47481000  1
  O  O1587  1  0.64134000  0.47481000  0.02677000  1
  O  O1588  1  0.64180000  0.57440000  0.67250000  1
  O  O1589  1  0.64180000  0.67250000  0.92560000  1
  O  O1590  1  0.64180000  0.82750000  0.57440000  1
  O  O1591  1  0.64180000  0.92560000  0.82750000  1
  O  O1592  1  0.64344000  0.06999000  0.38777000  1
  O  O1593  1  0.64344000  0.11223000  0.06999000  1
  O  O1594  1  0.64344000  0.38777000  0.43001000  1
  O  O1595  1  0.64344000  0.43001000  0.11223000  1
  O  O1596  1  0.64483000  0.08417000  0.32152000  1
  O  O1597  1  0.64483000  0.17848000  0.08417000  1
  O  O1598  1  0.64483000  0.32152000  0.41583000  1
  O  O1599  1  0.64483000  0.41583000  0.17848000  1
  O  O1600  1  0.67250000  0.57440000  0.85820000  1
  O  O1601  1  0.67250000  0.64180000  0.57440000  1
  O  O1602  1  0.67250000  0.85820000  0.92560000  1
  O  O1603  1  0.67250000  0.92560000  0.64180000  1
  O  O1604  1  0.67393000  0.00481000  0.18447000  1
  O  O1605  1  0.67393000  0.18447000  0.49519000  1
  O  O1606  1  0.67393000  0.31553000  0.00481000  1
  O  O1607  1  0.67393000  0.49519000  0.31553000  1
  O  O1608  1  0.67394000  0.08365000  0.50886000  1
  O  O1609  1  0.67394000  0.41635000  0.99114000  1
  O  O1610  1  0.67394000  0.50886000  0.41635000  1
  O  O1611  1  0.67394000  0.99114000  0.08365000  1
  O  O1612  1  0.67848000  0.14483000  0.58417000  1
  O  O1613  1  0.67848000  0.35517000  0.91583000  1
  O  O1614  1  0.67848000  0.58417000  0.35517000  1
  O  O1615  1  0.67848000  0.91583000  0.14483000  1
  O  O1616  1  0.68447000  0.17393000  0.99519000  1
  O  O1617  1  0.68447000  0.32607000  0.50481000  1
  O  O1618  1  0.68447000  0.50481000  0.17393000  1
  O  O1619  1  0.68447000  0.99519000  0.32607000  1
  O  O1620  1  0.68623000  0.09745000  0.98603000  1
  O  O1621  1  0.68623000  0.40255000  0.51397000  1
  O  O1622  1  0.68623000  0.51397000  0.09745000  1
  O  O1623  1  0.68623000  0.98603000  0.40255000  1
  O  O1624  1  0.70613000  0.56140000  0.91460000  1
  O  O1625  1  0.70613000  0.58540000  0.56140000  1
  O  O1626  1  0.70613000  0.91460000  0.93860000  1
  O  O1627  1  0.70613000  0.93860000  0.58540000  1
  O  O1628  1  0.74992000  0.13893000  0.97771000  1
  O  O1629  1  0.74992000  0.36107000  0.52229000  1
  O  O1630  1  0.74992000  0.52229000  0.13893000  1
  O  O1631  1  0.74992000  0.97771000  0.36107000  1
  O  O1632  1  0.75008000  0.13893000  0.52229000  1
  O  O1633  1  0.75008000  0.36107000  0.97771000  1
  O  O1634  1  0.75008000  0.52229000  0.36107000  1
  O  O1635  1  0.75008000  0.97771000  0.13893000  1
  O  O1636  1  0.79387000  0.56140000  0.58540000  1
  O  O1637  1  0.79387000  0.58540000  0.93860000  1
  O  O1638  1  0.79387000  0.91460000  0.56140000  1
  O  O1639  1  0.79387000  0.93860000  0.91460000  1
  O  O1640  1  0.81377000  0.09745000  0.51397000  1
  O  O1641  1  0.81377000  0.40255000  0.98603000  1
  O  O1642  1  0.81377000  0.51397000  0.40255000  1
  O  O1643  1  0.81377000  0.98603000  0.09745000  1
  O  O1644  1  0.81553000  0.17393000  0.50481000  1
  O  O1645  1  0.81553000  0.32607000  0.99519000  1
  O  O1646  1  0.81553000  0.50481000  0.32607000  1
  O  O1647  1  0.81553000  0.99519000  0.17393000  1
  O  O1648  1  0.82152000  0.14483000  0.91583000  1
  O  O1649  1  0.82152000  0.35517000  0.58417000  1
  O  O1650  1  0.82152000  0.58417000  0.14483000  1
  O  O1651  1  0.82152000  0.91583000  0.35517000  1
  O  O1652  1  0.82606000  0.08365000  0.99114000  1
  O  O1653  1  0.82606000  0.41635000  0.50886000  1
  O  O1654  1  0.82606000  0.50886000  0.08365000  1
  O  O1655  1  0.82606000  0.99114000  0.41635000  1
  O  O1656  1  0.82607000  0.00481000  0.31553000  1
  O  O1657  1  0.82607000  0.18447000  0.00481000  1
  O  O1658  1  0.82607000  0.31553000  0.49519000  1
  O  O1659  1  0.82607000  0.49519000  0.18447000  1
  O  O1660  1  0.82750000  0.57440000  0.64180000  1
  O  O1661  1  0.82750000  0.64180000  0.92560000  1
  O  O1662  1  0.82750000  0.85820000  0.57440000  1
  O  O1663  1  0.82750000  0.92560000  0.85820000  1
  O  O1664  1  0.85517000  0.08417000  0.17848000  1
  O  O1665  1  0.85517000  0.17848000  0.41583000  1
  O  O1666  1  0.85517000  0.32152000  0.08417000  1
  O  O1667  1  0.85517000  0.41583000  0.32152000  1
  O  O1668  1  0.85656000  0.06999000  0.11223000  1
  O  O1669  1  0.85656000  0.11223000  0.43001000  1
  O  O1670  1  0.85656000  0.38777000  0.06999000  1
  O  O1671  1  0.85656000  0.43001000  0.38777000  1
  O  O1672  1  0.85820000  0.57440000  0.82750000  1
  O  O1673  1  0.85820000  0.67250000  0.57440000  1
  O  O1674  1  0.85820000  0.82750000  0.92560000  1
  O  O1675  1  0.85820000  0.92560000  0.67250000  1
  O  O1676  1  0.85866000  0.02519000  0.02677000  1
  O  O1677  1  0.85866000  0.02677000  0.47481000  1
  O  O1678  1  0.85866000  0.47323000  0.02519000  1
  O  O1679  1  0.85866000  0.47481000  0.47323000  1
  O  O1680  1  0.86107000  0.02229000  0.25008000  1
  O  O1681  1  0.86107000  0.24992000  0.02229000  1
  O  O1682  1  0.86107000  0.25008000  0.47771000  1
  O  O1683  1  0.86107000  0.47771000  0.24992000  1
  O  O1684  1  0.88777000  0.14344000  0.93001000  1
  O  O1685  1  0.88777000  0.35656000  0.56999000  1
  O  O1686  1  0.88777000  0.56999000  0.14344000  1
  O  O1687  1  0.88777000  0.93001000  0.35656000  1
  O  O1688  1  0.90212000  0.00428000  0.41515000  1
  O  O1689  1  0.90212000  0.08485000  0.00428000  1
  O  O1690  1  0.90212000  0.41515000  0.49572000  1
  O  O1691  1  0.90212000  0.49572000  0.08485000  1
  O  O1692  1  0.90255000  0.01397000  0.31377000  1
  O  O1693  1  0.90255000  0.18623000  0.01397000  1
  O  O1694  1  0.90255000  0.31377000  0.48603000  1
  O  O1695  1  0.90255000  0.48603000  0.18623000  1
  O  O1696  1  0.91460000  0.56140000  0.79387000  1
  O  O1697  1  0.91460000  0.70613000  0.56140000  1
  O  O1698  1  0.91460000  0.79387000  0.93860000  1
  O  O1699  1  0.91460000  0.93860000  0.70613000  1
  O  O1700  1  0.91515000  0.09788000  0.50428000  1
  O  O1701  1  0.91515000  0.40212000  0.99572000  1
  O  O1702  1  0.91515000  0.50428000  0.40212000  1
  O  O1703  1  0.91515000  0.99572000  0.09788000  1
  O  O1704  1  0.91583000  0.14483000  0.67848000  1
  O  O1705  1  0.91583000  0.35517000  0.82152000  1
  O  O1706  1  0.91583000  0.67848000  0.35517000  1
  O  O1707  1  0.91583000  0.82152000  0.14483000  1
  O  O1708  1  0.91635000  0.00886000  0.17394000  1
  O  O1709  1  0.91635000  0.17394000  0.49114000  1
  O  O1710  1  0.91635000  0.32606000  0.00886000  1
  O  O1711  1  0.91635000  0.49114000  0.32606000  1
  O  O1712  1  0.92560000  0.64180000  0.67250000  1
  O  O1713  1  0.92560000  0.67250000  0.85820000  1
  O  O1714  1  0.92560000  0.82750000  0.64180000  1
  O  O1715  1  0.92560000  0.85820000  0.82750000  1
  O  O1716  1  0.93001000  0.14344000  0.61223000  1
  O  O1717  1  0.93001000  0.35656000  0.88777000  1
  O  O1718  1  0.93001000  0.61223000  0.35656000  1
  O  O1719  1  0.93001000  0.88777000  0.14344000  1
  O  O1720  1  0.93860000  0.58540000  0.70613000  1
  O  O1721  1  0.93860000  0.70613000  0.91460000  1
  O  O1722  1  0.93860000  0.79387000  0.58540000  1
  O  O1723  1  0.93860000  0.91460000  0.79387000  1
  O  O1724  1  0.97323000  0.14134000  0.97481000  1
  O  O1725  1  0.97323000  0.35866000  0.52519000  1
  O  O1726  1  0.97323000  0.52519000  0.14134000  1
  O  O1727  1  0.97323000  0.97481000  0.35866000  1
  O  O1728  1  0.97481000  0.14134000  0.52677000  1
  O  O1729  1  0.97481000  0.35866000  0.97323000  1
  O  O1730  1  0.97481000  0.52677000  0.35866000  1
  O  O1731  1  0.97481000  0.97323000  0.14134000  1
  O  O1732  1  0.97771000  0.13893000  0.75008000  1
  O  O1733  1  0.97771000  0.36107000  0.74992000  1
  O  O1734  1  0.97771000  0.74992000  0.13893000  1
  O  O1735  1  0.97771000  0.75008000  0.36107000  1
  O  O1736  1  0.98603000  0.09745000  0.81377000  1
  O  O1737  1  0.98603000  0.40255000  0.68623000  1
  O  O1738  1  0.98603000  0.68623000  0.09745000  1
  O  O1739  1  0.98603000  0.81377000  0.40255000  1
  O  O1740  1  0.99114000  0.08365000  0.67394000  1
  O  O1741  1  0.99114000  0.41635000  0.82606000  1
  O  O1742  1  0.99114000  0.67394000  0.41635000  1
  O  O1743  1  0.99114000  0.82606000  0.08365000  1
  O  O1744  1  0.99519000  0.17393000  0.81553000  1
  O  O1745  1  0.99519000  0.32607000  0.68447000  1
  O  O1746  1  0.99519000  0.68447000  0.17393000  1
  O  O1747  1  0.99519000  0.81553000  0.32607000  1
  O  O1748  1  0.99572000  0.09788000  0.91515000  1
  O  O1749  1  0.99572000  0.40212000  0.58485000  1
  O  O1750  1  0.99572000  0.58485000  0.09788000  1
  O  O1751  1  0.99572000  0.91515000  0.40212000  1
