# generated using pymatgen
data_Co2H18C24N4O9
_symmetry_space_group_name_H-M   'P 1'
_cell_length_a   10.54070000
_cell_length_b   11.82660000
_cell_length_c   14.11220000
_cell_angle_alpha   106.87800000
_cell_angle_beta   102.41100000
_cell_angle_gamma   111.01100000
_symmetry_Int_Tables_number   1
_chemical_formula_structural   Co2H18C24N4O9
_chemical_formula_sum   'Co4 H36 C48 N8 O18'
_cell_volume   1467.89387660
_cell_formula_units_Z   2
loop_
 _symmetry_equiv_pos_site_id
 _symmetry_equiv_pos_as_xyz
  1  'x, y, z'
loop_
 _atom_site_type_symbol
 _atom_site_label
 _atom_site_symmetry_multiplicity
 _atom_site_fract_x
 _atom_site_fract_y
 _atom_site_fract_z
 _atom_site_occupancy
  Co  Co0  1  0.19330000  0.49141000  0.21267000  1
  Co  Co1  1  0.45120000  0.23082000  0.69007000  1
  Co  Co2  1  0.54880000  0.76918000  0.30993000  1
  Co  Co3  1  0.80670000  0.50859000  0.78733000  1
  H  H4  1  0.00100000  0.97760000  0.80750000  1
  H  H5  1  0.00250000  0.72930000  0.13770000  1
  H  H6  1  0.02380000  0.19000000  0.13580000  1
  H  H7  1  0.04540000  0.60400000  0.98790000  1
  H  H8  1  0.05460000  0.80620000  0.31950000  1
  H  H9  1  0.07450000  0.54230000  0.70900000  1
  H  H10  1  0.12200000  0.17790000  0.61430000  1
  H  H11  1  0.13980000  0.07210000  0.36350000  1
  H  H12  1  0.15360000  0.77960000  0.68690000  1
  H  H13  1  0.16650000  0.65370000  0.53320000  1
  H  H14  1  0.26740000  0.00600000  0.74990000  1
  H  H15  1  0.30660000  0.45370000  0.41310000  1
  H  H16  1  0.31760000  0.60540000  0.77770000  1
  H  H17  1  0.38460000  0.98800000  0.50530000  1
  H  H18  1  0.40660000  0.33270000  0.89920000  1
  H  H19  1  0.41860000  0.51860000  0.21160000  1
  H  H20  1  0.43270000  0.67980000  0.95990000  1
  H  H21  1  0.47350000  0.55170000  0.31000000  1
  H  H22  1  0.52650000  0.44830000  0.69000000  1
  H  H23  1  0.56730000  0.32020000  0.04010000  1
  H  H24  1  0.58140000  0.48140000  0.78840000  1
  H  H25  1  0.59340000  0.66730000  0.10080000  1
  H  H26  1  0.61540000  0.01200000  0.49470000  1
  H  H27  1  0.68240000  0.39460000  0.22230000  1
  H  H28  1  0.69340000  0.54630000  0.58690000  1
  H  H29  1  0.73260000  0.99400000  0.25010000  1
  H  H30  1  0.83350000  0.34630000  0.46680000  1
  H  H31  1  0.84640000  0.22040000  0.31310000  1
  H  H32  1  0.86020000  0.92790000  0.63650000  1
  H  H33  1  0.87800000  0.82210000  0.38570000  1
  H  H34  1  0.92550000  0.45770000  0.29100000  1
  H  H35  1  0.94540000  0.19380000  0.68050000  1
  H  H36  1  0.95460000  0.39600000  0.01210000  1
  H  H37  1  0.97620000  0.81000000  0.86420000  1
  H  H38  1  0.99750000  0.27070000  0.86230000  1
  H  H39  1  0.99900000  0.02240000  0.19250000  1
  C  C40  1  0.03800000  0.22030000  0.72660000  1
  C  C41  1  0.06380000  0.10950000  0.23830000  1
  C  C42  1  0.06920000  0.26740000  0.83450000  1
  C  C43  1  0.07840000  0.21090000  0.20510000  1
  C  C44  1  0.10220000  0.60710000  0.94570000  1
  C  C45  1  0.11860000  0.56970000  0.78160000  1
  C  C46  1  0.14540000  0.21260000  0.68740000  1
  C  C47  1  0.14620000  0.13900000  0.34000000  1
  C  C48  1  0.20270000  0.82040000  0.64950000  1
  C  C49  1  0.20930000  0.74550000  0.55790000  1
  C  C50  1  0.20940000  0.30960000  0.90060000  1
  C  C51  1  0.23860000  0.26990000  0.40650000  1
  C  C52  1  0.24520000  0.36560000  0.36790000  1
  C  C53  1  0.24950000  0.64950000  0.99430000  1
  C  C54  1  0.25790000  0.36620000  0.01990000  1
  C  C55  1  0.26450000  0.60800000  0.82240000  1
  C  C56  1  0.26900000  0.95630000  0.68600000  1
  C  C57  1  0.28050000  0.80850000  0.50320000  1
  C  C58  1  0.30110000  0.73420000  0.40590000  1
  C  C59  1  0.30650000  0.68180000  0.11090000  1
  C  C60  1  0.31160000  0.30190000  0.85460000  1
  C  C61  1  0.33300000  0.65090000  0.93080000  1
  C  C62  1  0.33360000  0.30960000  0.51910000  1
  C  C63  1  0.33940000  0.94510000  0.54330000  1
  C  C64  1  0.66060000  0.05490000  0.45670000  1
  C  C65  1  0.66640000  0.69040000  0.48090000  1
  C  C66  1  0.66700000  0.34910000  0.06920000  1
  C  C67  1  0.68840000  0.69810000  0.14540000  1
  C  C68  1  0.69350000  0.31820000  0.88910000  1
  C  C69  1  0.69890000  0.26580000  0.59410000  1
  C  C70  1  0.71950000  0.19150000  0.49680000  1
  C  C71  1  0.73100000  0.04370000  0.31400000  1
  C  C72  1  0.73550000  0.39200000  0.17760000  1
  C  C73  1  0.74210000  0.63380000  0.98010000  1
  C  C74  1  0.75050000  0.35050000  0.00570000  1
  C  C75  1  0.75480000  0.63440000  0.63210000  1
  C  C76  1  0.76140000  0.73010000  0.59350000  1
  C  C77  1  0.79060000  0.69040000  0.09940000  1
  C  C78  1  0.79070000  0.25450000  0.44210000  1
  C  C79  1  0.79730000  0.17960000  0.35050000  1
  C  C80  1  0.85380000  0.86100000  0.66000000  1
  C  C81  1  0.85460000  0.78740000  0.31260000  1
  C  C82  1  0.88140000  0.43030000  0.21840000  1
  C  C83  1  0.89780000  0.39290000  0.05430000  1
  C  C84  1  0.92160000  0.78910000  0.79490000  1
  C  C85  1  0.93080000  0.73260000  0.16550000  1
  C  C86  1  0.93620000  0.89050000  0.76170000  1
  C  C87  1  0.96200000  0.77970000  0.27340000  1
  N  N88  1  0.03660000  0.57030000  0.84250000  1
  N  N89  1  0.16750000  0.33760000  0.26830000  1
  N  N90  1  0.28140000  0.25290000  0.74993000  1
  N  N91  1  0.33520000  0.01880000  0.63313000  1
  N  N92  1  0.66480000  0.98120000  0.36687000  1
  N  N93  1  0.71860000  0.74710000  0.25007000  1
  N  N94  1  0.83250000  0.66240000  0.73170000  1
  N  N95  1  0.96340000  0.42970000  0.15750000  1
  O  O96  1  0.16300000  0.36470000  0.06026000  1
  O  O97  1  0.21480000  0.63490000  0.14962000  1
  O  O98  1  0.21730000  0.61240000  0.35927000  1
  O  O99  1  0.33350000  0.21690000  0.54515000  1
  O  O100  1  0.39040000  0.41330000  0.07013000  1
  O  O101  1  0.39980000  0.79990000  0.38042000  1
  O  O102  1  0.40400000  0.42980000  0.57650000  1
  O  O103  1  0.42600000  0.55860000  0.25748000  1
  O  O104  1  0.44140000  0.75160000  0.16033000  1
  O  O105  1  0.55860000  0.24840000  0.83967000  1
  O  O106  1  0.57400000  0.44140000  0.74252000  1
  O  O107  1  0.59600000  0.57020000  0.42350000  1
  O  O108  1  0.60020000  0.20010000  0.61958000  1
  O  O109  1  0.60960000  0.58670000  0.92987000  1
  O  O110  1  0.66650000  0.78310000  0.45485000  1
  O  O111  1  0.78270000  0.38760000  0.64073000  1
  O  O112  1  0.78520000  0.36510000  0.85038000  1
  O  O113  1  0.83700000  0.63530000  0.93974000  1
