# generated using pymatgen
data_ZnH22C32(N2O3)2
_symmetry_space_group_name_H-M   'P 1'
_cell_length_a   16.52760000
_cell_length_b   16.52760000
_cell_length_c   25.39590000
_cell_angle_alpha   90.00000000
_cell_angle_beta   90.00000000
_cell_angle_gamma   120.00000000
_symmetry_Int_Tables_number   1
_chemical_formula_structural   ZnH22C32(N2O3)2
_chemical_formula_sum   'Zn6 H132 C192 N24 O36'
_cell_volume   6007.77732038
_cell_formula_units_Z   6
loop_
 _symmetry_equiv_pos_site_id
 _symmetry_equiv_pos_as_xyz
  1  'x, y, z'
loop_
 _atom_site_type_symbol
 _atom_site_label
 _atom_site_symmetry_multiplicity
 _atom_site_fract_x
 _atom_site_fract_y
 _atom_site_fract_z
 _atom_site_occupancy
  Zn  Zn0  1  0.71296000  0.28704000  0.33333333  1
  Zn  Zn1  1  0.71296000  0.42591000  0.00000000  1
  Zn  Zn2  1  0.57409000  0.28704000  0.66666667  1
  Zn  Zn3  1  0.42591000  0.71296000  0.66666667  1
  Zn  Zn4  1  0.28704000  0.57409000  1.00000000  1
  Zn  Zn5  1  0.28704000  0.71296000  0.33333333  1
  H  H6  1  0.97760000  0.36890000  0.21453000  1
  H  H7  1  0.97760000  0.60870000  0.11880000  1
  H  H8  1  0.97230000  0.41670000  0.48367000  1
  H  H9  1  0.97230000  0.55560000  0.84967000  1
  H  H10  1  0.94380000  0.35870000  0.96980000  1
  H  H11  1  0.94380000  0.58510000  0.36353000  1
  H  H12  1  0.91400000  0.45580000  0.71107000  1
  H  H13  1  0.91400000  0.45820000  0.62227000  1
  H  H14  1  0.89950000  0.35760000  0.38513000  1
  H  H15  1  0.89950000  0.54190000  0.94820000  1
  H  H16  1  0.84750000  0.26570000  0.48787000  1
  H  H17  1  0.84750000  0.58180000  0.84547000  1
  H  H18  1  0.83955000  0.16045000  0.83333000  1
  H  H19  1  0.83955000  0.67910000  0.50000000  1
  H  H20  1  0.83310000  0.28470000  0.03320000  1
  H  H21  1  0.83310000  0.54840000  0.30013000  1
  H  H22  1  0.82980000  0.32980000  0.23953000  1
  H  H23  1  0.82980000  0.50000000  0.09380000  1
  H  H24  1  0.82080000  0.22320000  0.91220000  1
  H  H25  1  0.82080000  0.59760000  0.42113000  1
  H  H26  1  0.79250000  0.30660000  0.62677000  1
  H  H27  1  0.79250000  0.48590000  0.70657000  1
  H  H28  1  0.77680000  0.17920000  0.75447000  1
  H  H29  1  0.77680000  0.59760000  0.57887000  1
  H  H30  1  0.73430000  0.15250000  0.17880000  1
  H  H31  1  0.73430000  0.58180000  0.15453000  1
  H  H32  1  0.71530000  0.16690000  0.63347000  1
  H  H33  1  0.71530000  0.54840000  0.69987000  1
  H  H34  1  0.69340000  0.20750000  0.03990000  1
  H  H35  1  0.69340000  0.48590000  0.29343000  1
  H  H36  1  0.67910000  0.83955000  0.16667000  1
  H  H37  1  0.67800000  0.32200000  0.83333000  1
  H  H38  1  0.67800000  0.35600000  0.50000000  1
  H  H39  1  0.67020000  0.17020000  0.42713000  1
  H  H40  1  0.67020000  0.50000000  0.90620000  1
  H  H41  1  0.64400000  0.32200000  0.16667000  1
  H  H42  1  0.64240000  0.10050000  0.28153000  1
  H  H43  1  0.64240000  0.54190000  0.05180000  1
  H  H44  1  0.64130000  0.05620000  0.69687000  1
  H  H45  1  0.64130000  0.58510000  0.63647000  1
  H  H46  1  0.63110000  0.02240000  0.45213000  1
  H  H47  1  0.63110000  0.60870000  0.88120000  1
  H  H48  1  0.60870000  0.63110000  0.78547000  1
  H  H49  1  0.60870000  0.97760000  0.54787000  1
  H  H50  1  0.59760000  0.77680000  0.08780000  1
  H  H51  1  0.59760000  0.82080000  0.24553000  1
  H  H52  1  0.58510000  0.64130000  0.03020000  1
  H  H53  1  0.58510000  0.94380000  0.30313000  1
  H  H54  1  0.58330000  0.02770000  0.18300000  1
  H  H55  1  0.58330000  0.55560000  0.15033000  1
  H  H56  1  0.58180000  0.73430000  0.51213000  1
  H  H57  1  0.58180000  0.84750000  0.82120000  1
  H  H58  1  0.55560000  0.58330000  0.51633000  1
  H  H59  1  0.55560000  0.97230000  0.81700000  1
  H  H60  1  0.54840000  0.71530000  0.96680000  1
  H  H61  1  0.54840000  0.83310000  0.36653000  1
  H  H62  1  0.54420000  0.08600000  0.95560000  1
  H  H63  1  0.54420000  0.45820000  0.37773000  1
  H  H64  1  0.54190000  0.64240000  0.61487000  1
  H  H65  1  0.54190000  0.89950000  0.71847000  1
  H  H66  1  0.54180000  0.08600000  0.04440000  1
  H  H67  1  0.54180000  0.45580000  0.28893000  1
  H  H68  1  0.51410000  0.20750000  0.96010000  1
  H  H69  1  0.51410000  0.30660000  0.37323000  1
  H  H70  1  0.50000000  0.67020000  0.76047000  1
  H  H71  1  0.50000000  0.82980000  0.57287000  1
  H  H72  1  0.50000000  0.17020000  0.57287000  1
  H  H73  1  0.50000000  0.32980000  0.76047000  1
  H  H74  1  0.48590000  0.69340000  0.37323000  1
  H  H75  1  0.48590000  0.79250000  0.96010000  1
  H  H76  1  0.45820000  0.54420000  0.28893000  1
  H  H77  1  0.45820000  0.91400000  0.04440000  1
  H  H78  1  0.45810000  0.10050000  0.71847000  1
  H  H79  1  0.45810000  0.35760000  0.61487000  1
  H  H80  1  0.45580000  0.54180000  0.37773000  1
  H  H81  1  0.45580000  0.91400000  0.95560000  1
  H  H82  1  0.45160000  0.16690000  0.36653000  1
  H  H83  1  0.45160000  0.28470000  0.96680000  1
  H  H84  1  0.44440000  0.02770000  0.81700000  1
  H  H85  1  0.44440000  0.41670000  0.51633000  1
  H  H86  1  0.41820000  0.15250000  0.82120000  1
  H  H87  1  0.41820000  0.26570000  0.51213000  1
  H  H88  1  0.41670000  0.44440000  0.15033000  1
  H  H89  1  0.41670000  0.97230000  0.18300000  1
  H  H90  1  0.41490000  0.05620000  0.30313000  1
  H  H91  1  0.41490000  0.35870000  0.03020000  1
  H  H92  1  0.40240000  0.17920000  0.24553000  1
  H  H93  1  0.40240000  0.22320000  0.08780000  1
  H  H94  1  0.39130000  0.02240000  0.54787000  1
  H  H95  1  0.39130000  0.36890000  0.78547000  1
  H  H96  1  0.36890000  0.39130000  0.88120000  1
  H  H97  1  0.36890000  0.97760000  0.45213000  1
  H  H98  1  0.35870000  0.41490000  0.63647000  1
  H  H99  1  0.35870000  0.94380000  0.69687000  1
  H  H100  1  0.35760000  0.45810000  0.05180000  1
  H  H101  1  0.35760000  0.89950000  0.28153000  1
  H  H102  1  0.35600000  0.67800000  0.16667000  1
  H  H103  1  0.32980000  0.50000000  0.90620000  1
  H  H104  1  0.32980000  0.82980000  0.42713000  1
  H  H105  1  0.32200000  0.64400000  0.50000000  1
  H  H106  1  0.32200000  0.67800000  0.83333000  1
  H  H107  1  0.32090000  0.16045000  0.16667000  1
  H  H108  1  0.30660000  0.51410000  0.29343000  1
  H  H109  1  0.30660000  0.79250000  0.03990000  1
  H  H110  1  0.28470000  0.45160000  0.69987000  1
  H  H111  1  0.28470000  0.83310000  0.63347000  1
  H  H112  1  0.26570000  0.41820000  0.15453000  1
  H  H113  1  0.26570000  0.84750000  0.17880000  1
  H  H114  1  0.22320000  0.40240000  0.57887000  1
  H  H115  1  0.22320000  0.82080000  0.75447000  1
  H  H116  1  0.20750000  0.51410000  0.70657000  1
  H  H117  1  0.20750000  0.69340000  0.62677000  1
  H  H118  1  0.17920000  0.40240000  0.42113000  1
  H  H119  1  0.17920000  0.77680000  0.91220000  1
  H  H120  1  0.17020000  0.50000000  0.09380000  1
  H  H121  1  0.17020000  0.67020000  0.23953000  1
  H  H122  1  0.16690000  0.45160000  0.30013000  1
  H  H123  1  0.16690000  0.71530000  0.03320000  1
  H  H124  1  0.16045000  0.32090000  0.50000000  1
  H  H125  1  0.16045000  0.83955000  0.83333000  1
  H  H126  1  0.15250000  0.41820000  0.84547000  1
  H  H127  1  0.15250000  0.73430000  0.48787000  1
  H  H128  1  0.10050000  0.45810000  0.94820000  1
  H  H129  1  0.10050000  0.64240000  0.38513000  1
  H  H130  1  0.08600000  0.54180000  0.62227000  1
  H  H131  1  0.08600000  0.54420000  0.71107000  1
  H  H132  1  0.05620000  0.41490000  0.36353000  1
  H  H133  1  0.05620000  0.64130000  0.96980000  1
  H  H134  1  0.02770000  0.44440000  0.84967000  1
  H  H135  1  0.02770000  0.58330000  0.48367000  1
  H  H136  1  0.02240000  0.39130000  0.11880000  1
  H  H137  1  0.02240000  0.63110000  0.21453000  1
  C  C138  1  0.98850000  0.38380000  0.99635000  1
  C  C139  1  0.98850000  0.60470000  0.33698000  1
  C  C140  1  0.96460000  0.36990000  0.25007000  1
  C  C141  1  0.96460000  0.59470000  0.08326000  1
  C  C142  1  0.96370000  0.36210000  0.04673000  1
  C  C143  1  0.96370000  0.60160000  0.28660000  1
  C  C144  1  0.96330000  0.45300000  0.55598000  1
  C  C145  1  0.96330000  0.51030000  0.77736000  1
  C  C146  1  0.93900000  0.39540000  0.51497000  1
  C  C147  1  0.93900000  0.54360000  0.81837000  1
  C  C148  1  0.91560000  0.36160000  0.34973000  1
  C  C149  1  0.91560000  0.55400000  0.98360000  1
  C  C150  1  0.90620000  0.41880000  0.59427000  1
  C  C151  1  0.90620000  0.48740000  0.73907000  1
  C  C152  1  0.87450000  0.34330000  0.26549000  1
  C  C153  1  0.87450000  0.53120000  0.06784000  1
  C  C154  1  0.86370000  0.30240000  0.51807000  1
  C  C155  1  0.86370000  0.56130000  0.81527000  1
  C  C156  1  0.83470000  0.25630000  0.10430000  1
  C  C157  1  0.83470000  0.57840000  0.22903000  1
  C  C158  1  0.83130000  0.32510000  0.59737000  1
  C  C159  1  0.83130000  0.50620000  0.73597000  1
  C  C160  1  0.81570000  0.26560000  0.56101000  1
  C  C161  1  0.81570000  0.55010000  0.77233000  1
  C  C162  1  0.80705000  0.19295000  0.83333000  1
  C  C163  1  0.80705000  0.61410000  0.50000000  1
  C  C164  1  0.79680000  0.23130000  0.88080000  1
  C  C165  1  0.79680000  0.56550000  0.45253000  1
  C  C166  1  0.76870000  0.20320000  0.78587000  1
  C  C167  1  0.76870000  0.56550000  0.54747000  1
  C  C168  1  0.74930000  0.28220000  0.87933000  1
  C  C169  1  0.74930000  0.46710000  0.45400000  1
  C  C170  1  0.74370000  0.16530000  0.56237000  1
  C  C171  1  0.74370000  0.57840000  0.77097000  1
  C  C172  1  0.73990000  0.32400000  0.92925000  1
  C  C173  1  0.73990000  0.41590000  0.40408000  1
  C  C174  1  0.73440000  0.18430000  0.10566000  1
  C  C175  1  0.73440000  0.55010000  0.22767000  1
  C  C176  1  0.71780000  0.25070000  0.78734000  1
  C  C177  1  0.71780000  0.46710000  0.54600000  1
  C  C178  1  0.71050000  0.28950000  0.83333000  1
  C  C179  1  0.71050000  0.42100000  0.50000000  1
  C  C180  1  0.69760000  0.13630000  0.14860000  1
  C  C181  1  0.69760000  0.56130000  0.18473000  1
  C  C182  1  0.67600000  0.26010000  0.73742000  1
  C  C183  1  0.67600000  0.41590000  0.59592000  1
  C  C184  1  0.67490000  0.16870000  0.06930000  1
  C  C185  1  0.67490000  0.50620000  0.26403000  1
  C  C186  1  0.65670000  0.12550000  0.40117000  1
  C  C187  1  0.65670000  0.53120000  0.93216000  1
  C  C188  1  0.63840000  0.08440000  0.31693000  1
  C  C189  1  0.63840000  0.55400000  0.01640000  1
  C  C190  1  0.63790000  0.03630000  0.61994000  1
  C  C191  1  0.63790000  0.60160000  0.71340000  1
  C  C192  1  0.63010000  0.03540000  0.41659000  1
  C  C193  1  0.63010000  0.59470000  0.91674000  1
  C  C194  1  0.61620000  0.01150000  0.67032000  1
  C  C195  1  0.61620000  0.60470000  0.66302000  1
  C  C196  1  0.61410000  0.80705000  0.16667000  1
  C  C197  1  0.60470000  0.61620000  0.00365000  1
  C  C198  1  0.60470000  0.98850000  0.32968000  1
  C  C199  1  0.60460000  0.06100000  0.15170000  1
  C  C200  1  0.60460000  0.54360000  0.18163000  1
  C  C201  1  0.60160000  0.63790000  0.95327000  1
  C  C202  1  0.60160000  0.96370000  0.38006000  1
  C  C203  1  0.59470000  0.63010000  0.74993000  1
  C  C204  1  0.59470000  0.96460000  0.58341000  1
  C  C205  1  0.58410000  0.26010000  0.26258000  1
  C  C206  1  0.58410000  0.32400000  0.07075000  1
  C  C207  1  0.58120000  0.09380000  0.07240000  1
  C  C208  1  0.58120000  0.48740000  0.26093000  1
  C  C209  1  0.57900000  0.28950000  0.16667000  1
  C  C210  1  0.57840000  0.74370000  0.89570000  1
  C  C211  1  0.57840000  0.83470000  0.43763000  1
  C  C212  1  0.56550000  0.76870000  0.11920000  1
  C  C213  1  0.56550000  0.79680000  0.21413000  1
  C  C214  1  0.56130000  0.69760000  0.48193000  1
  C  C215  1  0.56130000  0.86370000  0.85140000  1
  C  C216  1  0.55400000  0.63840000  0.65027000  1
  C  C217  1  0.55400000  0.91560000  0.68307000  1
  C  C218  1  0.55010000  0.73440000  0.43899000  1
  C  C219  1  0.55010000  0.81570000  0.89434000  1
  C  C220  1  0.54700000  0.03670000  0.11069000  1
  C  C221  1  0.54700000  0.51030000  0.22264000  1
  C  C222  1  0.54360000  0.60460000  0.48503000  1
  C  C223  1  0.54360000  0.93900000  0.84830000  1
  C  C224  1  0.53290000  0.25070000  0.21266000  1
  C  C225  1  0.53290000  0.28220000  0.12067000  1
  C  C226  1  0.53120000  0.65670000  0.73451000  1
  C  C227  1  0.53120000  0.87450000  0.59883000  1
  C  C228  1  0.51260000  0.09380000  0.92760000  1
  C  C229  1  0.51260000  0.41880000  0.40573000  1
  C  C230  1  0.51030000  0.54700000  0.44402000  1
  C  C231  1  0.51030000  0.96330000  0.88931000  1
  C  C232  1  0.50620000  0.67490000  0.40263000  1
  C  C233  1  0.50620000  0.83130000  0.93070000  1
  C  C234  1  0.49380000  0.16870000  0.93070000  1
  C  C235  1  0.49380000  0.32510000  0.40263000  1
  C  C236  1  0.48970000  0.03670000  0.88931000  1
  C  C237  1  0.48970000  0.45300000  0.44402000  1
  C  C238  1  0.48740000  0.58120000  0.40573000  1
  C  C239  1  0.48740000  0.90620000  0.92760000  1
  C  C240  1  0.46880000  0.12550000  0.59883000  1
  C  C241  1  0.46880000  0.34330000  0.73451000  1
  C  C242  1  0.46710000  0.71780000  0.12067000  1
  C  C243  1  0.46710000  0.74930000  0.21266000  1
  C  C244  1  0.45640000  0.06100000  0.84830000  1
  C  C245  1  0.45640000  0.39540000  0.48503000  1
  C  C246  1  0.45300000  0.48970000  0.22264000  1
  C  C247  1  0.45300000  0.96330000  0.11069000  1
  C  C248  1  0.44990000  0.18430000  0.89434000  1
  C  C249  1  0.44990000  0.26560000  0.43899000  1
  C  C250  1  0.44600000  0.08440000  0.68307000  1
  C  C251  1  0.44600000  0.36160000  0.65027000  1
  C  C252  1  0.43870000  0.13630000  0.85140000  1
  C  C253  1  0.43870000  0.30240000  0.48193000  1
  C  C254  1  0.43450000  0.20320000  0.21413000  1
  C  C255  1  0.43450000  0.23130000  0.11920000  1
  C  C256  1  0.42160000  0.16530000  0.43763000  1
  C  C257  1  0.42160000  0.25630000  0.89570000  1
  C  C258  1  0.42100000  0.71050000  0.16667000  1
  C  C259  1  0.41880000  0.51260000  0.26093000  1
  C  C260  1  0.41880000  0.90620000  0.07240000  1
  C  C261  1  0.41590000  0.67600000  0.07075000  1
  C  C262  1  0.41590000  0.73990000  0.26258000  1
  C  C263  1  0.40530000  0.03540000  0.58341000  1
  C  C264  1  0.40530000  0.36990000  0.74993000  1
  C  C265  1  0.39840000  0.03630000  0.38006000  1
  C  C266  1  0.39840000  0.36210000  0.95327000  1
  C  C267  1  0.39540000  0.45640000  0.18163000  1
  C  C268  1  0.39540000  0.93900000  0.15170000  1
  C  C269  1  0.39530000  0.01150000  0.32968000  1
  C  C270  1  0.39530000  0.38380000  0.00365000  1
  C  C271  1  0.38590000  0.19295000  0.16667000  1
  C  C272  1  0.38380000  0.39530000  0.66302000  1
  C  C273  1  0.38380000  0.98850000  0.67032000  1
  C  C274  1  0.36990000  0.40530000  0.91674000  1
  C  C275  1  0.36990000  0.96460000  0.41659000  1
  C  C276  1  0.36210000  0.39840000  0.71340000  1
  C  C277  1  0.36210000  0.96370000  0.61994000  1
  C  C278  1  0.36160000  0.44600000  0.01640000  1
  C  C279  1  0.36160000  0.91560000  0.31693000  1
  C  C280  1  0.34330000  0.46880000  0.93216000  1
  C  C281  1  0.34330000  0.87450000  0.40117000  1
  C  C282  1  0.32510000  0.49380000  0.26403000  1
  C  C283  1  0.32510000  0.83130000  0.06930000  1
  C  C284  1  0.32400000  0.58410000  0.59592000  1
  C  C285  1  0.32400000  0.73990000  0.73742000  1
  C  C286  1  0.30240000  0.43870000  0.18473000  1
  C  C287  1  0.30240000  0.86370000  0.14860000  1
  C  C288  1  0.28950000  0.57900000  0.50000000  1
  C  C289  1  0.28950000  0.71050000  0.83333000  1
  C  C290  1  0.28220000  0.53290000  0.54600000  1
  C  C291  1  0.28220000  0.74930000  0.78734000  1
  C  C292  1  0.26560000  0.44990000  0.22767000  1
  C  C293  1  0.26560000  0.81570000  0.10566000  1
  C  C294  1  0.26010000  0.58410000  0.40408000  1
  C  C295  1  0.26010000  0.67600000  0.92925000  1
  C  C296  1  0.25630000  0.42160000  0.77097000  1
  C  C297  1  0.25630000  0.83470000  0.56237000  1
  C  C298  1  0.25070000  0.53290000  0.45400000  1
  C  C299  1  0.25070000  0.71780000  0.87933000  1
  C  C300  1  0.23130000  0.43450000  0.54747000  1
  C  C301  1  0.23130000  0.79680000  0.78587000  1
  C  C302  1  0.20320000  0.43450000  0.45253000  1
  C  C303  1  0.20320000  0.76870000  0.88080000  1
  C  C304  1  0.19295000  0.38590000  0.50000000  1
  C  C305  1  0.19295000  0.80705000  0.83333000  1
  C  C306  1  0.18430000  0.44990000  0.77233000  1
  C  C307  1  0.18430000  0.73440000  0.56101000  1
  C  C308  1  0.16870000  0.49380000  0.73597000  1
  C  C309  1  0.16870000  0.67490000  0.59737000  1
  C  C310  1  0.16530000  0.42160000  0.22903000  1
  C  C311  1  0.16530000  0.74370000  0.10430000  1
  C  C312  1  0.13630000  0.43870000  0.81527000  1
  C  C313  1  0.13630000  0.69760000  0.51807000  1
  C  C314  1  0.12550000  0.46880000  0.06784000  1
  C  C315  1  0.12550000  0.65670000  0.26549000  1
  C  C316  1  0.09380000  0.51260000  0.73907000  1
  C  C317  1  0.09380000  0.58120000  0.59427000  1
  C  C318  1  0.08440000  0.44600000  0.98360000  1
  C  C319  1  0.08440000  0.63840000  0.34973000  1
  C  C320  1  0.06100000  0.45640000  0.81837000  1
  C  C321  1  0.06100000  0.60460000  0.51497000  1
  C  C322  1  0.03670000  0.48970000  0.77736000  1
  C  C323  1  0.03670000  0.54700000  0.55598000  1
  C  C324  1  0.03630000  0.39840000  0.28660000  1
  C  C325  1  0.03630000  0.63790000  0.04673000  1
  C  C326  1  0.03540000  0.40530000  0.08326000  1
  C  C327  1  0.03540000  0.63010000  0.25007000  1
  C  C328  1  0.01150000  0.39530000  0.33698000  1
  C  C329  1  0.01150000  0.61620000  0.99635000  1
  N  N330  1  0.87194000  0.29880000  0.05880000  1
  N  N331  1  0.87194000  0.57314000  0.27453000  1
  N  N332  1  0.84917000  0.33609000  0.31478000  1
  N  N333  1  0.84917000  0.51308000  0.01855000  1
  N  N334  1  0.70120000  0.12806000  0.60787000  1
  N  N335  1  0.70120000  0.57314000  0.72547000  1
  N  N336  1  0.66391000  0.15083000  0.35188000  1
  N  N337  1  0.66391000  0.51308000  0.98145000  1
  N  N338  1  0.57314000  0.70120000  0.94120000  1
  N  N339  1  0.57314000  0.87194000  0.39213000  1
  N  N340  1  0.51308000  0.66391000  0.68522000  1
  N  N341  1  0.51308000  0.84917000  0.64812000  1
  N  N342  1  0.48692000  0.15083000  0.64812000  1
  N  N343  1  0.48692000  0.33609000  0.68522000  1
  N  N344  1  0.42686000  0.12806000  0.39213000  1
  N  N345  1  0.42686000  0.29880000  0.94120000  1
  N  N346  1  0.33609000  0.48692000  0.98145000  1
  N  N347  1  0.33609000  0.84917000  0.35188000  1
  N  N348  1  0.29880000  0.42686000  0.72547000  1
  N  N349  1  0.29880000  0.87194000  0.60787000  1
  N  N350  1  0.15083000  0.48692000  0.01855000  1
  N  N351  1  0.15083000  0.66391000  0.31478000  1
  N  N352  1  0.12806000  0.42686000  0.27453000  1
  N  N353  1  0.12806000  0.70120000  0.05880000  1
  O  O354  1  0.88260000  0.27410000  0.14347000  1
  O  O355  1  0.88260000  0.60850000  0.18986000  1
  O  O356  1  0.76532000  0.30402000  0.97143000  1
  O  O357  1  0.76532000  0.46130000  0.36190000  1
  O  O358  1  0.72590000  0.11740000  0.52320000  1
  O  O359  1  0.72590000  0.60850000  0.81014000  1
  O  O360  1  0.70871000  0.33028000  0.40499000  1
  O  O361  1  0.70871000  0.37843000  0.92834000  1
  O  O362  1  0.69598000  0.23468000  0.69524000  1
  O  O363  1  0.69598000  0.46130000  0.63810000  1
  O  O364  1  0.66972000  0.29129000  0.26167000  1
  O  O365  1  0.66972000  0.37843000  0.07166000  1
  O  O366  1  0.62157000  0.29129000  0.73833000  1
  O  O367  1  0.62157000  0.33028000  0.59501000  1
  O  O368  1  0.60850000  0.72590000  0.85653000  1
  O  O369  1  0.60850000  0.88260000  0.47680000  1
  O  O370  1  0.53870000  0.23468000  0.30476000  1
  O  O371  1  0.53870000  0.30402000  0.02857000  1
  O  O372  1  0.46130000  0.69598000  0.02857000  1
  O  O373  1  0.46130000  0.76532000  0.30476000  1
  O  O374  1  0.39150000  0.11740000  0.47680000  1
  O  O375  1  0.39150000  0.27410000  0.85653000  1
  O  O376  1  0.37843000  0.66972000  0.59501000  1
  O  O377  1  0.37843000  0.70871000  0.73833000  1
  O  O378  1  0.33028000  0.62157000  0.07166000  1
  O  O379  1  0.33028000  0.70871000  0.26167000  1
  O  O380  1  0.30402000  0.53870000  0.63810000  1
  O  O381  1  0.30402000  0.76532000  0.69524000  1
  O  O382  1  0.29129000  0.62157000  0.92834000  1
  O  O383  1  0.29129000  0.66972000  0.40499000  1
  O  O384  1  0.27410000  0.39150000  0.81014000  1
  O  O385  1  0.27410000  0.88260000  0.52320000  1
  O  O386  1  0.23468000  0.53870000  0.36190000  1
  O  O387  1  0.23468000  0.69598000  0.97143000  1
  O  O388  1  0.11740000  0.39150000  0.18986000  1
  O  O389  1  0.11740000  0.72590000  0.14347000  1
