# generated using pymatgen
data_Nd2U3H6(C5O4)6
_symmetry_space_group_name_H-M   'P 1'
_cell_length_a   10.89810000
_cell_length_b   11.54520000
_cell_length_c   13.40860000
_cell_angle_alpha   69.39900000
_cell_angle_beta   79.95900000
_cell_angle_gamma   62.24200000
_symmetry_Int_Tables_number   1
_chemical_formula_structural   Nd2U3H6(C5O4)6
_chemical_formula_sum   'Nd2 U3 H6 C30 O24'
_cell_volume   1397.35529842
_cell_formula_units_Z   1
loop_
 _symmetry_equiv_pos_site_id
 _symmetry_equiv_pos_as_xyz
  1  'x, y, z'
loop_
 _atom_site_type_symbol
 _atom_site_label
 _atom_site_symmetry_multiplicity
 _atom_site_fract_x
 _atom_site_fract_y
 _atom_site_fract_z
 _atom_site_occupancy
  Nd  Nd0  1  0.37968000  0.78368000  0.22409000  1
  Nd  Nd1  1  0.62032000  0.21632000  0.77591000  1
  U  U2  1  0.00000000  0.50000000  0.50000000  1
  U  U3  1  0.36923000  0.29599000  0.16749000  1
  U  U4  1  0.63077000  0.70401000  0.83251000  1
  H  H5  1  0.09665000  0.36347000  0.95335000  1
  H  H6  1  0.18441000  0.09619000  0.73261000  1
  H  H7  1  0.29277000  0.00102000  0.58313000  1
  H  H8  1  0.70723000  0.99898000  0.41687000  1
  H  H9  1  0.81559000  0.90381000  0.26739000  1
  H  H10  1  0.90335000  0.63653000  0.04665000  1
  C  C11  1  0.00850000  0.33780000  0.84590000  1
  C  C12  1  0.03320000  0.25800000  0.78070000  1
  C  C13  1  0.08070000  0.72260000  0.28300000  1
  C  C14  1  0.11600000  0.31230000  0.90490000  1
  C  C15  1  0.12680000  0.54300000  0.15210000  1
  C  C16  1  0.16770000  0.15460000  0.77460000  1
  C  C17  1  0.25010000  0.21560000  0.89610000  1
  C  C18  1  0.25750000  0.25560000  0.49670000  1
  C  C19  1  0.27800000  0.13570000  0.82900000  1
  C  C20  1  0.35490000  0.20080000  0.96330000  1
  C  C21  1  0.37810000  0.00050000  0.54910000  1
  C  C22  1  0.38460000  0.12460000  0.49760000  1
  C  C23  1  0.41910000  0.02900000  0.81040000  1
  C  C24  1  0.47450000  0.74740000  0.61410000  1
  C  C25  1  0.49120000  0.87560000  0.55270000  1
  C  C26  1  0.50880000  0.12440000  0.44730000  1
  C  C27  1  0.52550000  0.25260000  0.38590000  1
  C  C28  1  0.58090000  0.97100000  0.18960000  1
  C  C29  1  0.61540000  0.87540000  0.50240000  1
  C  C30  1  0.62190000  0.99950000  0.45090000  1
  C  C31  1  0.64510000  0.79920000  0.03670000  1
  C  C32  1  0.72200000  0.86430000  0.17100000  1
  C  C33  1  0.74250000  0.74440000  0.50330000  1
  C  C34  1  0.74990000  0.78440000  0.10390000  1
  C  C35  1  0.83230000  0.84540000  0.22540000  1
  C  C36  1  0.87320000  0.45700000  0.84790000  1
  C  C37  1  0.88400000  0.68770000  0.09510000  1
  C  C38  1  0.91930000  0.27740000  0.71700000  1
  C  C39  1  0.96680000  0.74200000  0.21930000  1
  C  C40  1  0.99150000  0.66220000  0.15410000  1
  O  O41  1  0.09950000  0.64320000  0.37750000  1
  O  O42  1  0.14340000  0.46960000  0.09600000  1
  O  O43  1  0.14350000  0.25030000  0.52480000  1
  O  O44  1  0.14630000  0.79150000  0.23880000  1
  O  O45  1  0.22620000  0.51360000  0.20630000  1
  O  O46  1  0.26500000  0.36780000  0.47030000  1
  O  O47  1  0.31070000  0.21500000  0.05450000  1
  O  O48  1  0.42300000  0.70280000  0.57040000  1
  O  O49  1  0.42720000  0.90980000  0.82770000  1
  O  O50  1  0.47480000  0.17910000  0.93180000  1
  O  O51  1  0.48300000  0.94020000  0.22130000  1
  O  O52  1  0.49470000  0.30700000  0.28750000  1
  O  O53  1  0.50530000  0.69300000  0.71250000  1
  O  O54  1  0.51700000  0.05980000  0.77870000  1
  O  O55  1  0.52520000  0.82090000  0.06820000  1
  O  O56  1  0.57280000  0.09020000  0.17230000  1
  O  O57  1  0.57700000  0.29720000  0.42960000  1
  O  O58  1  0.68930000  0.78500000  0.94550000  1
  O  O59  1  0.73500000  0.63220000  0.52970000  1
  O  O60  1  0.77380000  0.48640000  0.79370000  1
  O  O61  1  0.85370000  0.20850000  0.76120000  1
  O  O62  1  0.85650000  0.74970000  0.47520000  1
  O  O63  1  0.85660000  0.53040000  0.90400000  1
  O  O64  1  0.90050000  0.35680000  0.62250000  1
