# generated using pymatgen
data_Ce2Cu2H5(C5O4)5
_symmetry_space_group_name_H-M   'P 1'
_cell_length_a   10.97180000
_cell_length_b   19.78210000
_cell_length_c   20.26680000
_cell_angle_alpha   90.00000000
_cell_angle_beta   90.00000000
_cell_angle_gamma   99.31200000
_symmetry_Int_Tables_number   1
_chemical_formula_structural   Ce2Cu2H5(C5O4)5
_chemical_formula_sum   'Ce8 Cu8 H20 C100 O80'
_cell_volume   4340.84434865
_cell_formula_units_Z   4
loop_
 _symmetry_equiv_pos_site_id
 _symmetry_equiv_pos_as_xyz
  1  'x, y, z'
loop_
 _atom_site_type_symbol
 _atom_site_label
 _atom_site_symmetry_multiplicity
 _atom_site_fract_x
 _atom_site_fract_y
 _atom_site_fract_z
 _atom_site_occupancy
  Ce  Ce0  1  0.03741000  0.84420000  0.37361000  1
  Ce  Ce1  1  0.15767000  0.91833000  0.87558000  1
  Ce  Ce2  1  0.34233000  0.58167000  0.37558000  1
  Ce  Ce3  1  0.46259000  0.65580000  0.87361000  1
  Ce  Ce4  1  0.53741000  0.34420000  0.12639000  1
  Ce  Ce5  1  0.65767000  0.41833000  0.62442000  1
  Ce  Ce6  1  0.84233000  0.08167000  0.12442000  1
  Ce  Ce7  1  0.96259000  0.15580000  0.62639000  1
  Cu  Cu8  1  0.08106000  0.83090000  0.17329000  1
  Cu  Cu9  1  0.20433000  0.91179000  0.67389000  1
  Cu  Cu10  1  0.29567000  0.58821000  0.17389000  1
  Cu  Cu11  1  0.41894000  0.66910000  0.67329000  1
  Cu  Cu12  1  0.58106000  0.33090000  0.32671000  1
  Cu  Cu13  1  0.70433000  0.41179000  0.82611000  1
  Cu  Cu14  1  0.79567000  0.08821000  0.32611000  1
  Cu  Cu15  1  0.91894000  0.16910000  0.82671000  1
  H  H16  1  0.01240000  0.42550000  0.31450000  1
  H  H17  1  0.08340000  0.43480000  0.07720000  1
  H  H18  1  0.10890000  0.24520000  0.18990000  1
  H  H19  1  0.12840000  0.50530000  0.80530000  1
  H  H20  1  0.23120000  0.32480000  0.68210000  1
  H  H21  1  0.26880000  0.17520000  0.18210000  1
  H  H22  1  0.37160000  0.99470000  0.30530000  1
  H  H23  1  0.39110000  0.25480000  0.68990000  1
  H  H24  1  0.41660000  0.06520000  0.57720000  1
  H  H25  1  0.48760000  0.07450000  0.81450000  1
  H  H26  1  0.51240000  0.92550000  0.18550000  1
  H  H27  1  0.58340000  0.93480000  0.42280000  1
  H  H28  1  0.60890000  0.74520000  0.31010000  1
  H  H29  1  0.62840000  0.00530000  0.69470000  1
  H  H30  1  0.73120000  0.82480000  0.81790000  1
  H  H31  1  0.76880000  0.67520000  0.31790000  1
  H  H32  1  0.87160000  0.49470000  0.19470000  1
  H  H33  1  0.89110000  0.75480000  0.81010000  1
  H  H34  1  0.91660000  0.56520000  0.92280000  1
  H  H35  1  0.98760000  0.57450000  0.68550000  1
  C  C36  1  0.01250000  0.73020000  0.74270000  1
  C  C37  1  0.03190000  0.38930000  0.28960000  1
  C  C38  1  0.03740000  0.60530000  0.17220000  1
  C  C39  1  0.04150000  0.67430000  0.70600000  1
  C  C40  1  0.04330000  0.27860000  0.75950000  1
  C  C41  1  0.04970000  0.46120000  0.04620000  1
  C  C42  1  0.07640000  0.55150000  0.96560000  1
  C  C43  1  0.07840000  0.40420000  0.78640000  1
  C  C44  1  0.08100000  0.80060000  0.73340000  1
  C  C45  1  0.08980000  0.28130000  0.21530000  1
  C  C46  1  0.09330000  0.06920000  0.16860000  1
  C  C47  1  0.11060000  0.34980000  0.74990000  1
  C  C48  1  0.12600000  0.51220000  0.01300000  1
  C  C49  1  0.13470000  0.39980000  0.24830000  1
  C  C50  1  0.15000000  0.46890000  0.78130000  1
  C  C51  1  0.15590000  0.60520000  0.92610000  1
  C  C52  1  0.15790000  0.67830000  0.66540000  1
  C  C53  1  0.16370000  0.34510000  0.21060000  1
  C  C54  1  0.17680000  0.94890000  0.23280000  1
  C  C55  1  0.20280000  0.47160000  0.24110000  1
  C  C56  1  0.21240000  0.36060000  0.70780000  1
  C  C57  1  0.21440000  0.07550000  0.20410000  1
  C  C58  1  0.21660000  0.14730000  0.67260000  1
  C  C59  1  0.23870000  0.97700000  0.52990000  1
  C  C60  1  0.24640000  0.02020000  0.24060000  1
  C  C61  1  0.25360000  0.47980000  0.74060000  1
  C  C62  1  0.26130000  0.52300000  0.02990000  1
  C  C63  1  0.28340000  0.35270000  0.17260000  1
  C  C64  1  0.28560000  0.42450000  0.70410000  1
  C  C65  1  0.28760000  0.13940000  0.20780000  1
  C  C66  1  0.29720000  0.02840000  0.74110000  1
  C  C67  1  0.32320000  0.55110000  0.73280000  1
  C  C68  1  0.33630000  0.15490000  0.71060000  1
  C  C69  1  0.34210000  0.82170000  0.16540000  1
  C  C70  1  0.34410000  0.89480000  0.42610000  1
  C  C71  1  0.35000000  0.03110000  0.28130000  1
  C  C72  1  0.36530000  0.10020000  0.74830000  1
  C  C73  1  0.37400000  0.98780000  0.51300000  1
  C  C74  1  0.38940000  0.15020000  0.24990000  1
  C  C75  1  0.40670000  0.43080000  0.66860000  1
  C  C76  1  0.41020000  0.21870000  0.71530000  1
  C  C77  1  0.41900000  0.69940000  0.23340000  1
  C  C78  1  0.42160000  0.09580000  0.28640000  1
  C  C79  1  0.42360000  0.94850000  0.46560000  1
  C  C80  1  0.45030000  0.03880000  0.54620000  1
  C  C81  1  0.45670000  0.22140000  0.25950000  1
  C  C82  1  0.45850000  0.82570000  0.20600000  1
  C  C83  1  0.46260000  0.89470000  0.67220000  1
  C  C84  1  0.46810000  0.11070000  0.78960000  1
  C  C85  1  0.48750000  0.76980000  0.24270000  1
  C  C86  1  0.51250000  0.23020000  0.75730000  1
  C  C87  1  0.53190000  0.88930000  0.21040000  1
  C  C88  1  0.53740000  0.10530000  0.32780000  1
  C  C89  1  0.54150000  0.17430000  0.79400000  1
  C  C90  1  0.54330000  0.77860000  0.74050000  1
  C  C91  1  0.54970000  0.96120000  0.45380000  1
  C  C92  1  0.57640000  0.05150000  0.53440000  1
  C  C93  1  0.57840000  0.90420000  0.71360000  1
  C  C94  1  0.58100000  0.30060000  0.76660000  1
  C  C95  1  0.58980000  0.78130000  0.28470000  1
  C  C96  1  0.59330000  0.56920000  0.33140000  1
  C  C97  1  0.61060000  0.84980000  0.75010000  1
  C  C98  1  0.62600000  0.01220000  0.48700000  1
  C  C99  1  0.63470000  0.89980000  0.25170000  1
  C  C100  1  0.65000000  0.96890000  0.71870000  1
  C  C101  1  0.65590000  0.10520000  0.57390000  1
  C  C102  1  0.65790000  0.17830000  0.83460000  1
  C  C103  1  0.66370000  0.84510000  0.28940000  1
  C  C104  1  0.67680000  0.44890000  0.26720000  1
  C  C105  1  0.70280000  0.97160000  0.25890000  1
  C  C106  1  0.71240000  0.86060000  0.79220000  1
  C  C107  1  0.71440000  0.57550000  0.29590000  1
  C  C108  1  0.71660000  0.64730000  0.82740000  1
  C  C109  1  0.73870000  0.47700000  0.97010000  1
  C  C110  1  0.74640000  0.52020000  0.25940000  1
  C  C111  1  0.75360000  0.97980000  0.75940000  1
  C  C112  1  0.76130000  0.02300000  0.47010000  1
  C  C113  1  0.78340000  0.85270000  0.32740000  1
  C  C114  1  0.78560000  0.92450000  0.79590000  1
  C  C115  1  0.78760000  0.63940000  0.29220000  1
  C  C116  1  0.79720000  0.52840000  0.75890000  1
  C  C117  1  0.82320000  0.05110000  0.76720000  1
  C  C118  1  0.83630000  0.65490000  0.78940000  1
  C  C119  1  0.84210000  0.32170000  0.33460000  1
  C  C120  1  0.84410000  0.39480000  0.07390000  1
  C  C121  1  0.85000000  0.53110000  0.21870000  1
  C  C122  1  0.86530000  0.60020000  0.75170000  1
  C  C123  1  0.87400000  0.48780000  0.98700000  1
  C  C124  1  0.88940000  0.65020000  0.25010000  1
  C  C125  1  0.90670000  0.93080000  0.83140000  1
  C  C126  1  0.91020000  0.71870000  0.78470000  1
  C  C127  1  0.91900000  0.19940000  0.26660000  1
  C  C128  1  0.92160000  0.59580000  0.21360000  1
  C  C129  1  0.92360000  0.44850000  0.03440000  1
  C  C130  1  0.95030000  0.53880000  0.95380000  1
  C  C131  1  0.95670000  0.72140000  0.24050000  1
  C  C132  1  0.95850000  0.32570000  0.29400000  1
  C  C133  1  0.96260000  0.39470000  0.82780000  1
  C  C134  1  0.96810000  0.61070000  0.71040000  1
  C  C135  1  0.98750000  0.26980000  0.25730000  1
  O  O136  1  0.00010000  0.73630000  0.18420000  1
  O  O137  1  0.00020000  0.03130000  0.19381000  1
  O  O138  1  0.02960000  0.60190000  0.11190000  1
  O  O139  1  0.03790000  0.23740000  0.71240000  1
  O  O140  1  0.08240000  0.10540000  0.11803000  1
  O  O141  1  0.08980000  0.84130000  0.78142000  1
  O  O142  1  0.10550000  0.64760000  0.89400000  1
  O  O143  1  0.12320000  0.11068000  0.69868000  1
  O  O144  1  0.12370000  0.81600000  0.67686000  1
  O  O145  1  0.13750000  0.61360000  0.20500000  1
  O  O146  1  0.14080000  0.91510000  0.28308000  1
  O  O147  1  0.15020000  0.66010000  0.60720000  1
  O  O148  1  0.16290000  0.92640000  0.17430000  1
  O  O149  1  0.17900000  0.02250000  0.50960000  1
  O  O150  1  0.19320000  0.92600000  0.56485000  1
  O  O151  1  0.20780000  0.17890000  0.61966000  1
  O  O152  1  0.22040000  0.49300000  0.18280000  1
  O  O153  1  0.22830000  0.89560000  0.42602000  1
  O  O154  1  0.23120000  0.50650000  0.29210000  1
  O  O155  1  0.24130000  0.80240000  0.19707000  1
  O  O156  1  0.25870000  0.69760000  0.69707000  1
  O  O157  1  0.26880000  0.99350000  0.79210000  1
  O  O158  1  0.27170000  0.60440000  0.92602000  1
  O  O159  1  0.27960000  0.00700000  0.68280000  1
  O  O160  1  0.29220000  0.32110000  0.11966000  1
  O  O161  1  0.30680000  0.57400000  0.06485000  1
  O  O162  1  0.32100000  0.47750000  0.00960000  1
  O  O163  1  0.33710000  0.57360000  0.67430000  1
  O  O164  1  0.34980000  0.83990000  0.10720000  1
  O  O165  1  0.35920000  0.58490000  0.78308000  1
  O  O166  1  0.36250000  0.88640000  0.70500000  1
  O  O167  1  0.37630000  0.68400000  0.17686000  1
  O  O168  1  0.37680000  0.38932000  0.19868000  1
  O  O169  1  0.39450000  0.85240000  0.39400000  1
  O  O170  1  0.41020000  0.65870000  0.28142000  1
  O  O171  1  0.41760000  0.39460000  0.61803000  1
  O  O172  1  0.46210000  0.26260000  0.21240000  1
  O  O173  1  0.47040000  0.89810000  0.61190000  1
  O  O174  1  0.49980000  0.46870000  0.69381000  1
  O  O175  1  0.49990000  0.76370000  0.68420000  1
  O  O176  1  0.50010000  0.23630000  0.31580000  1
  O  O177  1  0.50020000  0.53130000  0.30619000  1
  O  O178  1  0.52960000  0.10190000  0.38810000  1
  O  O179  1  0.53790000  0.73740000  0.78760000  1
  O  O180  1  0.58240000  0.60540000  0.38197000  1
  O  O181  1  0.58980000  0.34130000  0.71858000  1
  O  O182  1  0.60550000  0.14760000  0.60600000  1
  O  O183  1  0.62320000  0.61068000  0.80132000  1
  O  O184  1  0.62370000  0.31600000  0.82314000  1
  O  O185  1  0.63750000  0.11360000  0.29500000  1
  O  O186  1  0.64080000  0.41510000  0.21692000  1
  O  O187  1  0.65020000  0.16010000  0.89280000  1
  O  O188  1  0.66290000  0.42640000  0.32570000  1
  O  O189  1  0.67900000  0.52250000  0.99040000  1
  O  O190  1  0.69320000  0.42600000  0.93515000  1
  O  O191  1  0.70780000  0.67890000  0.88034000  1
  O  O192  1  0.72040000  0.99300000  0.31720000  1
  O  O193  1  0.72830000  0.39560000  0.07398000  1
  O  O194  1  0.73120000  0.00650000  0.20790000  1
  O  O195  1  0.74130000  0.30240000  0.30293000  1
  O  O196  1  0.75870000  0.19760000  0.80293000  1
  O  O197  1  0.76880000  0.49350000  0.70790000  1
  O  O198  1  0.77170000  0.10440000  0.57398000  1
  O  O199  1  0.77960000  0.50700000  0.81720000  1
  O  O200  1  0.79220000  0.82110000  0.38034000  1
  O  O201  1  0.80680000  0.07400000  0.43515000  1
  O  O202  1  0.82100000  0.97750000  0.49040000  1
  O  O203  1  0.83710000  0.07360000  0.82570000  1
  O  O204  1  0.84980000  0.33990000  0.39280000  1
  O  O205  1  0.85920000  0.08490000  0.71692000  1
  O  O206  1  0.86250000  0.38640000  0.79500000  1
  O  O207  1  0.87630000  0.18400000  0.32314000  1
  O  O208  1  0.87680000  0.88932000  0.30132000  1
  O  O209  1  0.89450000  0.35240000  0.10600000  1
  O  O210  1  0.91020000  0.15870000  0.21858000  1
  O  O211  1  0.91760000  0.89460000  0.88197000  1
  O  O212  1  0.96210000  0.76260000  0.28760000  1
  O  O213  1  0.97040000  0.39810000  0.88810000  1
  O  O214  1  0.99980000  0.96870000  0.80619000  1
  O  O215  1  0.99990000  0.26370000  0.81580000  1
