# generated using pymatgen
data_Cu3H12C40N3(Cl3O4)3
_symmetry_space_group_name_H-M   'P 1'
_cell_length_a   18.83270000
_cell_length_b   18.83270000
_cell_length_c   18.83270000
_cell_angle_alpha   72.80770000
_cell_angle_beta   72.80770000
_cell_angle_gamma   72.80770000
_symmetry_Int_Tables_number   1
_chemical_formula_structural   Cu3H12C40N3(Cl3O4)3
_chemical_formula_sum   'Cu12 H48 C160 N12 Cl36 O48'
_cell_volume   5935.07871791
_cell_formula_units_Z   4
loop_
 _symmetry_equiv_pos_site_id
 _symmetry_equiv_pos_as_xyz
  1  'x, y, z'
loop_
 _atom_site_type_symbol
 _atom_site_label
 _atom_site_symmetry_multiplicity
 _atom_site_fract_x
 _atom_site_fract_y
 _atom_site_fract_z
 _atom_site_occupancy
  Cu  Cu0  1  0.35036000  0.91282000  0.76827000  1
  Cu  Cu1  1  0.41282000  0.85036000  0.26827000  1
  Cu  Cu2  1  0.91281000  0.76827000  0.35036000  1
  Cu  Cu3  1  0.14964000  0.73173000  0.58718000  1
  Cu  Cu4  1  0.23173000  0.64964000  0.08718000  1
  Cu  Cu5  1  0.73173000  0.58718000  0.14964000  1
  Cu  Cu6  1  0.26827000  0.41282000  0.85036000  1
  Cu  Cu7  1  0.76827000  0.35036000  0.91282000  1
  Cu  Cu8  1  0.85036000  0.26827000  0.41282000  1
  Cu  Cu9  1  0.08718000  0.23173000  0.64964000  1
  Cu  Cu10  1  0.58718000  0.14964000  0.73173000  1
  Cu  Cu11  1  0.64964000  0.08718000  0.23173000  1
  H  H12  1  0.18460000  0.99590000  0.41390000  1
  H  H13  1  0.43960000  0.98180000  0.30500000  1
  H  H14  1  0.48180000  0.93960000  0.80500000  1
  H  H15  1  0.62680000  0.92590000  0.62490000  1
  H  H16  1  0.68460000  0.91390000  0.49590000  1
  H  H17  1  0.25590000  0.90800000  0.34200000  1
  H  H18  1  0.87320000  0.87510000  0.57410000  1
  H  H19  1  0.57410000  0.87320000  0.87510000  1
  H  H20  1  0.75590000  0.84200000  0.40800000  1
  H  H21  1  0.58610000  0.81540000  0.00410000  1
  H  H22  1  0.93960000  0.80500000  0.48180000  1
  H  H23  1  0.40800000  0.75590000  0.84200000  1
  H  H24  1  0.65800000  0.74410000  0.09200000  1
  H  H25  1  0.01820000  0.69500000  0.56040000  1
  H  H26  1  0.49590000  0.68460000  0.91390000  1
  H  H27  1  0.09200000  0.65800000  0.74410000  1
  H  H28  1  0.62490000  0.62680000  0.92590000  1
  H  H29  1  0.92590000  0.62490000  0.62680000  1
  H  H30  1  0.15800000  0.59200000  0.24410000  1
  H  H31  1  0.00410000  0.58610000  0.81540000  1
  H  H32  1  0.87510000  0.57410000  0.87320000  1
  H  H33  1  0.69500000  0.56040000  0.01820000  1
  H  H34  1  0.19500000  0.51820000  0.06040000  1
  H  H35  1  0.08610000  0.50410000  0.31540000  1
  H  H36  1  0.91390000  0.49590000  0.68460000  1
  H  H37  1  0.80500000  0.48180000  0.93960000  1
  H  H38  1  0.30500000  0.43960000  0.98180000  1
  H  H39  1  0.12490000  0.42590000  0.12680000  1
  H  H40  1  0.99590000  0.41390000  0.18460000  1
  H  H41  1  0.84200000  0.40800000  0.75590000  1
  H  H42  1  0.07410000  0.37510000  0.37320000  1
  H  H43  1  0.37510000  0.37320000  0.07410000  1
  H  H44  1  0.90800000  0.34200000  0.25590000  1
  H  H45  1  0.50410000  0.31540000  0.08610000  1
  H  H46  1  0.98180000  0.30500000  0.43960000  1
  H  H47  1  0.34200000  0.25590000  0.90800000  1
  H  H48  1  0.59200000  0.24410000  0.15800000  1
  H  H49  1  0.06040000  0.19500000  0.51820000  1
  H  H50  1  0.41390000  0.18460000  0.99590000  1
  H  H51  1  0.24410000  0.15800000  0.59200000  1
  H  H52  1  0.42590000  0.12680000  0.12490000  1
  H  H53  1  0.12680000  0.12490000  0.42590000  1
  H  H54  1  0.74410000  0.09200000  0.65800000  1
  H  H55  1  0.31540000  0.08610000  0.50410000  1
  H  H56  1  0.37320000  0.07410000  0.37510000  1
  H  H57  1  0.51820000  0.06040000  0.19500000  1
  H  H58  1  0.56040000  0.01820000  0.69500000  1
  H  H59  1  0.81540000  0.00410000  0.58610000  1
  C  C60  1  0.99294000  0.99854000  0.81414000  1
  C  C61  1  0.23678000  0.99408000  0.39258000  1
  C  C62  1  0.81414000  0.99294000  0.99854000  1
  C  C63  1  0.78583000  0.99063000  0.88363000  1
  C  C64  1  0.38739000  0.98509000  0.32749000  1
  C  C65  1  0.95400000  0.98480000  0.25420000  1
  C  C66  1  0.83870000  0.96680000  0.93100000  1
  C  C67  1  0.06800000  0.96550000  0.69640000  1
  C  C68  1  0.65196000  0.95966000  0.63006000  1
  C  C69  1  0.28493000  0.95923000  0.10043000  1
  C  C70  1  0.72849000  0.95569000  0.59569000  1
  C  C71  1  0.25420000  0.95400000  0.98480000  1
  C  C72  1  0.27964000  0.94174000  0.34944000  1
  C  C73  1  0.34368000  0.94158000  0.14708000  1
  C  C74  1  0.30360000  0.93200000  0.03450000  1
  C  C75  1  0.96680000  0.93100000  0.83870000  1
  C  C76  1  0.27691000  0.92211000  0.91391000  1
  C  C77  1  0.92211000  0.91391000  0.27691000  1
  C  C78  1  0.91347000  0.91347000  0.91347000  1
  C  C79  1  0.77151000  0.90431000  0.54431000  1
  C  C80  1  0.04077000  0.89957000  0.71507000  1
  C  C81  1  0.73678000  0.89258000  0.49408000  1
  C  C82  1  0.48509000  0.88739000  0.82749000  1
  C  C83  1  0.99063000  0.88363000  0.78583000  1
  C  C84  1  0.84804000  0.86994000  0.54034000  1
  C  C85  1  0.05842000  0.85292000  0.65632000  1
  C  C86  1  0.77964000  0.84944000  0.44174000  1
  C  C87  1  0.54034000  0.84804000  0.86994000  1
  C  C88  1  0.44158000  0.84368000  0.64708000  1
  C  C89  1  0.93100000  0.83870000  0.96680000  1
  C  C90  1  0.88739000  0.82749000  0.48509000  1
  C  C91  1  0.99854000  0.81414000  0.99294000  1
  C  C92  1  0.43200000  0.80360000  0.53450000  1
  C  C93  1  0.88363000  0.78583000  0.99063000  1
  C  C94  1  0.45923000  0.78493000  0.60043000  1
  C  C95  1  0.44174000  0.77964000  0.84944000  1
  C  C96  1  0.42211000  0.77691000  0.41391000  1
  C  C97  1  0.54431000  0.77151000  0.90431000  1
  C  C98  1  0.60742000  0.76322000  0.00592000  1
  C  C99  1  0.45400000  0.75420000  0.48480000  1
  C  C100  1  0.01520000  0.74580000  0.04600000  1
  C  C101  1  0.49408000  0.73678000  0.89258000  1
  C  C102  1  0.59569000  0.72849000  0.95569000  1
  C  C103  1  0.08609000  0.72309000  0.07789000  1
  C  C104  1  0.65056000  0.72036000  0.05826000  1
  C  C105  1  0.89957000  0.71507000  0.04077000  1
  C  C106  1  0.50937000  0.71417000  0.61637000  1
  C  C107  1  0.96550000  0.69640000  0.06800000  1
  C  C108  1  0.50706000  0.68586000  0.50146000  1
  C  C109  1  0.01491000  0.67251000  0.61261000  1
  C  C110  1  0.53320000  0.66130000  0.56900000  1
  C  C111  1  0.85292000  0.65632000  0.05842000  1
  C  C112  1  0.63006000  0.65196000  0.95966000  1
  C  C113  1  0.05826000  0.65056000  0.72036000  1
  C  C114  1  0.84368000  0.64708000  0.44158000  1
  C  C115  1  0.95966000  0.63006000  0.65196000  1
  C  C116  1  0.71417000  0.61637000  0.50937000  1
  C  C117  1  0.67251000  0.61261000  0.01491000  1
  C  C118  1  0.00592000  0.60742000  0.76322000  1
  C  C119  1  0.78493000  0.60043000  0.45923000  1
  C  C120  1  0.95569000  0.59569000  0.72849000  1
  C  C121  1  0.58653000  0.58653000  0.58653000  1
  C  C122  1  0.22309000  0.58609000  0.57789000  1
  C  C123  1  0.58609000  0.57789000  0.22309000  1
  C  C124  1  0.66130000  0.56900000  0.53320000  1
  C  C125  1  0.46550000  0.56800000  0.19640000  1
  C  C126  1  0.35292000  0.55842000  0.15632000  1
  C  C127  1  0.15056000  0.55826000  0.22036000  1
  C  C128  1  0.51520000  0.54600000  0.24580000  1
  C  C129  1  0.90431000  0.54431000  0.77151000  1
  C  C130  1  0.39957000  0.54077000  0.21507000  1
  C  C131  1  0.86994000  0.54034000  0.84804000  1
  C  C132  1  0.80360000  0.53450000  0.43200000  1
  C  C133  1  0.56900000  0.53320000  0.66130000  1
  C  C134  1  0.24580000  0.51520000  0.54600000  1
  C  C135  1  0.17251000  0.51491000  0.11261000  1
  C  C136  1  0.61637000  0.50937000  0.71417000  1
  C  C137  1  0.50146000  0.50706000  0.68586000  1
  C  C138  1  0.10742000  0.50592000  0.26322000  1
  C  C139  1  0.68586000  0.50146000  0.50706000  1
  C  C140  1  0.31414000  0.49854000  0.49294000  1
  C  C141  1  0.89258000  0.49408000  0.73678000  1
  C  C142  1  0.49854000  0.49294000  0.31414000  1
  C  C143  1  0.38363000  0.49063000  0.28583000  1
  C  C144  1  0.82749000  0.48509000  0.88739000  1
  C  C145  1  0.75420000  0.48480000  0.45400000  1
  C  C146  1  0.43100000  0.46680000  0.33870000  1
  C  C147  1  0.19640000  0.46550000  0.56800000  1
  C  C148  1  0.13006000  0.45966000  0.15196000  1
  C  C149  1  0.60043000  0.45923000  0.78493000  1
  C  C150  1  0.09569000  0.45569000  0.22849000  1
  C  C151  1  0.48480000  0.45400000  0.75420000  1
  C  C152  1  0.84944000  0.44174000  0.77964000  1
  C  C153  1  0.64708000  0.44158000  0.84368000  1
  C  C154  1  0.53450000  0.43200000  0.80360000  1
  C  C155  1  0.33870000  0.43100000  0.46680000  1
  C  C156  1  0.41391000  0.42211000  0.77691000  1
  C  C157  1  0.77691000  0.41391000  0.42211000  1
  C  C158  1  0.41347000  0.41347000  0.41347000  1
  C  C159  1  0.04431000  0.40431000  0.27151000  1
  C  C160  1  0.21507000  0.39957000  0.54077000  1
  C  C161  1  0.99408000  0.39258000  0.23678000  1
  C  C162  1  0.32749000  0.38739000  0.98509000  1
  C  C163  1  0.28583000  0.38363000  0.49063000  1
  C  C164  1  0.04034000  0.36994000  0.34804000  1
  C  C165  1  0.15632000  0.35292000  0.55842000  1
  C  C166  1  0.94174000  0.34944000  0.27964000  1
  C  C167  1  0.36994000  0.34804000  0.04034000  1
  C  C168  1  0.14708000  0.34368000  0.94158000  1
  C  C169  1  0.46680000  0.33870000  0.43100000  1
  C  C170  1  0.98509000  0.32749000  0.38739000  1
  C  C171  1  0.49294000  0.31414000  0.49854000  1
  C  C172  1  0.03450000  0.30360000  0.93200000  1
  C  C173  1  0.49063000  0.28583000  0.38363000  1
  C  C174  1  0.10043000  0.28493000  0.95923000  1
  C  C175  1  0.34944000  0.27964000  0.94174000  1
  C  C176  1  0.91391000  0.27691000  0.92211000  1
  C  C177  1  0.40431000  0.27151000  0.04431000  1
  C  C178  1  0.50592000  0.26322000  0.10742000  1
  C  C179  1  0.98480000  0.25420000  0.95400000  1
  C  C180  1  0.54600000  0.24580000  0.51520000  1
  C  C181  1  0.39258000  0.23678000  0.99408000  1
  C  C182  1  0.45569000  0.22849000  0.09569000  1
  C  C183  1  0.57789000  0.22309000  0.58609000  1
  C  C184  1  0.55826000  0.22036000  0.15056000  1
  C  C185  1  0.54077000  0.21507000  0.39957000  1
  C  C186  1  0.11637000  0.21417000  0.00937000  1
  C  C187  1  0.56800000  0.19640000  0.46550000  1
  C  C188  1  0.00146000  0.18586000  0.00706000  1
  C  C189  1  0.11261000  0.17251000  0.51491000  1
  C  C190  1  0.06900000  0.16130000  0.03320000  1
  C  C191  1  0.55842000  0.15632000  0.35292000  1
  C  C192  1  0.45966000  0.15196000  0.13006000  1
  C  C193  1  0.22036000  0.15056000  0.55826000  1
  C  C194  1  0.94158000  0.14708000  0.34368000  1
  C  C195  1  0.15196000  0.13006000  0.45966000  1
  C  C196  1  0.00937000  0.11637000  0.21417000  1
  C  C197  1  0.51491000  0.11261000  0.17251000  1
  C  C198  1  0.26322000  0.10742000  0.50592000  1
  C  C199  1  0.95923000  0.10043000  0.28493000  1
  C  C200  1  0.22849000  0.09569000  0.45569000  1
  C  C201  1  0.08653000  0.08653000  0.08653000  1
  C  C202  1  0.07789000  0.08609000  0.72309000  1
  C  C203  1  0.72309000  0.07789000  0.08609000  1
  C  C204  1  0.03320000  0.06900000  0.16130000  1
  C  C205  1  0.69640000  0.06800000  0.96550000  1
  C  C206  1  0.65632000  0.05842000  0.85292000  1
  C  C207  1  0.72036000  0.05826000  0.65056000  1
  C  C208  1  0.74580000  0.04600000  0.01520000  1
  C  C209  1  0.27151000  0.04431000  0.40431000  1
  C  C210  1  0.71507000  0.04077000  0.89957000  1
  C  C211  1  0.34804000  0.04034000  0.36994000  1
  C  C212  1  0.93200000  0.03450000  0.30360000  1
  C  C213  1  0.16130000  0.03320000  0.06900000  1
  C  C214  1  0.04600000  0.01520000  0.74580000  1
  C  C215  1  0.61261000  0.01491000  0.67251000  1
  C  C216  1  0.21417000  0.00937000  0.11637000  1
  C  C217  1  0.18586000  0.00706000  0.00146000  1
  C  C218  1  0.76322000  0.00592000  0.60742000  1
  C  C219  1  0.00706000  0.00146000  0.18586000  1
  N  N220  1  0.35371000  0.93741000  0.31771000  1
  N  N221  1  0.43741000  0.85371000  0.81771000  1
  N  N222  1  0.85371000  0.81771000  0.43741000  1
  N  N223  1  0.06259000  0.68229000  0.64629000  1
  N  N224  1  0.68229000  0.64629000  0.06259000  1
  N  N225  1  0.18229000  0.56259000  0.14629000  1
  N  N226  1  0.81771000  0.43741000  0.85371000  1
  N  N227  1  0.31771000  0.35371000  0.93741000  1
  N  N228  1  0.93741000  0.31771000  0.35371000  1
  N  N229  1  0.14629000  0.18229000  0.56259000  1
  N  N230  1  0.56259000  0.14629000  0.18229000  1
  N  N231  1  0.64629000  0.06259000  0.68229000  1
  Cl  Cl232  1  0.13364000  0.98427000  0.61109000  1
  Cl  Cl233  1  0.87227000  0.96641000  0.06234000  1
  Cl  Cl234  1  0.80830000  0.95965000  0.79995000  1
  Cl  Cl235  1  0.03359000  0.93766000  0.12773000  1
  Cl  Cl236  1  0.36636000  0.88891000  0.51573000  1
  Cl  Cl237  1  0.06234000  0.87227000  0.96641000  1
  Cl  Cl238  1  0.38891000  0.86636000  0.01573000  1
  Cl  Cl239  1  0.79995000  0.80830000  0.95965000  1
  Cl  Cl240  1  0.95965000  0.79995000  0.80830000  1
  Cl  Cl241  1  0.69170000  0.70005000  0.54035000  1
  Cl  Cl242  1  0.54035000  0.69170000  0.70005000  1
  Cl  Cl243  1  0.48427000  0.63364000  0.11109000  1
  Cl  Cl244  1  0.53359000  0.62773000  0.43766000  1
  Cl  Cl245  1  0.98427000  0.61109000  0.13364000  1
  Cl  Cl246  1  0.37227000  0.56234000  0.46641000  1
  Cl  Cl247  1  0.70005000  0.54035000  0.69170000  1
  Cl  Cl248  1  0.43766000  0.53359000  0.62773000  1
  Cl  Cl249  1  0.88891000  0.51573000  0.36636000  1
  Cl  Cl250  1  0.11109000  0.48427000  0.63364000  1
  Cl  Cl251  1  0.56234000  0.46641000  0.37227000  1
  Cl  Cl252  1  0.29995000  0.45965000  0.30830000  1
  Cl  Cl253  1  0.62773000  0.43766000  0.53359000  1
  Cl  Cl254  1  0.01573000  0.38891000  0.86636000  1
  Cl  Cl255  1  0.46641000  0.37227000  0.56234000  1
  Cl  Cl256  1  0.51573000  0.36636000  0.88891000  1
  Cl  Cl257  1  0.45965000  0.30830000  0.29995000  1
  Cl  Cl258  1  0.30830000  0.29995000  0.45965000  1
  Cl  Cl259  1  0.04035000  0.20005000  0.19170000  1
  Cl  Cl260  1  0.20005000  0.19170000  0.04035000  1
  Cl  Cl261  1  0.61109000  0.13364000  0.98427000  1
  Cl  Cl262  1  0.93766000  0.12773000  0.03359000  1
  Cl  Cl263  1  0.63364000  0.11109000  0.48427000  1
  Cl  Cl264  1  0.96641000  0.06234000  0.87227000  1
  Cl  Cl265  1  0.19170000  0.04035000  0.20005000  1
  Cl  Cl266  1  0.12773000  0.03359000  0.93766000  1
  Cl  Cl267  1  0.86636000  0.01573000  0.38891000  1
  O  O268  1  0.38479000  0.98839000  0.12909000  1
  O  O269  1  0.30639000  0.96346000  0.85349000  1
  O  O270  1  0.85818000  0.92068000  0.26648000  1
  O  O271  1  0.48839000  0.88479000  0.62909000  1
  O  O272  1  0.34747000  0.88437000  0.19597000  1
  O  O273  1  0.01161000  0.87091000  0.61521000  1
  O  O274  1  0.26648000  0.85818000  0.92068000  1
  O  O275  1  0.96346000  0.85349000  0.30639000  1
  O  O276  1  0.38437000  0.84747000  0.69597000  1
  O  O277  1  0.46346000  0.80639000  0.35349000  1
  O  O278  1  0.11563000  0.80403000  0.65253000  1
  O  O279  1  0.35818000  0.76648000  0.42068000  1
  O  O280  1  0.07932000  0.73352000  0.14182000  1
  O  O281  1  0.84747000  0.69597000  0.38437000  1
  O  O282  1  0.14651000  0.69361000  0.03654000  1
  O  O283  1  0.80403000  0.65253000  0.11563000  1
  O  O284  1  0.19361000  0.64651000  0.53654000  1
  O  O285  1  0.57932000  0.64182000  0.23352000  1
  O  O286  1  0.88479000  0.62909000  0.48839000  1
  O  O287  1  0.30403000  0.61563000  0.15253000  1
  O  O288  1  0.87091000  0.61521000  0.01161000  1
  O  O289  1  0.23352000  0.57932000  0.64182000  1
  O  O290  1  0.64651000  0.53654000  0.19361000  1
  O  O291  1  0.37091000  0.51161000  0.11521000  1
  O  O292  1  0.62909000  0.48839000  0.88479000  1
  O  O293  1  0.35349000  0.46346000  0.80639000  1
  O  O294  1  0.76648000  0.42068000  0.35818000  1
  O  O295  1  0.12909000  0.38479000  0.98839000  1
  O  O296  1  0.69597000  0.38437000  0.84747000  1
  O  O297  1  0.11521000  0.37091000  0.51161000  1
  O  O298  1  0.42068000  0.35818000  0.76648000  1
  O  O299  1  0.80639000  0.35349000  0.46346000  1
  O  O300  1  0.19597000  0.34747000  0.88437000  1
  O  O301  1  0.85349000  0.30639000  0.96346000  1
  O  O302  1  0.15253000  0.30403000  0.61563000  1
  O  O303  1  0.92068000  0.26648000  0.85818000  1
  O  O304  1  0.64182000  0.23352000  0.57932000  1
  O  O305  1  0.88437000  0.19597000  0.34747000  1
  O  O306  1  0.53654000  0.19361000  0.64651000  1
  O  O307  1  0.61563000  0.15253000  0.30403000  1
  O  O308  1  0.03654000  0.14651000  0.69361000  1
  O  O309  1  0.73352000  0.14182000  0.07932000  1
  O  O310  1  0.98839000  0.12909000  0.38479000  1
  O  O311  1  0.65253000  0.11563000  0.80403000  1
  O  O312  1  0.51161000  0.11521000  0.37091000  1
  O  O313  1  0.14182000  0.07932000  0.73352000  1
  O  O314  1  0.69361000  0.03654000  0.14651000  1
  O  O315  1  0.61521000  0.01161000  0.87091000  1
