# generated using pymatgen
data_Zn6H72C132N36O25
_symmetry_space_group_name_H-M   'P 1'
_cell_length_a   24.07803086
_cell_length_b   24.07803086
_cell_length_c   37.65000000
_cell_angle_alpha   90.00000000
_cell_angle_beta   90.00000000
_cell_angle_gamma   103.78190917
_symmetry_Int_Tables_number   1
_chemical_formula_structural   Zn6H72C132N36O25
_chemical_formula_sum   'Zn12 H144 C264 N72 O50'
_cell_volume   21199.21878900
_cell_formula_units_Z   2
loop_
 _symmetry_equiv_pos_site_id
 _symmetry_equiv_pos_as_xyz
  1  'x, y, z'
loop_
 _atom_site_type_symbol
 _atom_site_label
 _atom_site_symmetry_multiplicity
 _atom_site_fract_x
 _atom_site_fract_y
 _atom_site_fract_z
 _atom_site_occupancy
  C  C0  1  0.85140000  0.13380000  0.14880000  1
  C  C1  1  0.13380000  0.85140000  0.85120000  1
  C  C2  1  0.84510000  0.12970000  0.56750000  1
  C  C3  1  0.12970000  0.84510000  0.43250000  1
  C  C4  1  0.86880000  0.08960000  0.40440000  1
  C  C5  1  0.08960000  0.86880000  0.59560000  1
  C  C6  1  0.83780000  0.11780000  0.38256000  1
  C  C7  1  0.11780000  0.83780000  0.61744000  1
  C  C8  1  0.82790000  0.11830000  0.99060000  1
  C  C9  1  0.11830000  0.82790000  0.00940000  1
  C  C10  1  0.80060000  0.13320000  0.02040000  1
  C  C11  1  0.13320000  0.80060000  0.97960000  1
  C  C12  1  0.79830000  0.12750000  0.58420000  1
  C  C13  1  0.12750000  0.79830000  0.41580000  1
  C  C14  1  0.84340000  0.06140000  0.43460000  1
  C  C15  1  0.06140000  0.84340000  0.56540000  1
  C  C16  1  0.83930000  0.06450000  0.98840000  1
  C  C17  1  0.06450000  0.83930000  0.01160000  1
  C  C18  1  0.78160000  0.11760000  0.39092000  1
  C  C19  1  0.11760000  0.78160000  0.60908000  1
  C  C20  1  0.81300000  0.07760000  0.64200000  1
  C  C21  1  0.07760000  0.81300000  0.35800000  1
  C  C22  1  0.86600000  0.01900000  0.29220000  1
  C  C23  1  0.01900000  0.86600000  0.70780000  1
  C  C24  1  0.93200000  0.95100000  0.77320000  1
  C  C25  1  0.95100000  0.93200000  0.22680000  1
  C  C26  1  0.77850000  0.10230000  0.62050000  1
  C  C27  1  0.10230000  0.77850000  0.37950000  1
  C  C28  1  0.78460000  0.09440000  0.04800000  1
  C  C29  1  0.09440000  0.78460000  0.95200000  1
  C  C30  1  0.88690000  0.98830000  0.31812000  1
  C  C31  1  0.98830000  0.88690000  0.68188000  1
  C  C32  1  0.91820000  0.94360000  0.19870000  1
  C  C33  1  0.94360000  0.91820000  0.80130000  1
  C  C34  1  0.82830000  0.02630000  0.69590000  1
  C  C35  1  0.02630000  0.82830000  0.30410000  1
  C  C36  1  0.82330000  0.02550000  0.01600000  1
  C  C37  1  0.02550000  0.82330000  0.98400000  1
  C  C38  1  0.78720000  0.06120000  0.44301000  1
  C  C39  1  0.06120000  0.78720000  0.55699000  1
  C  C40  1  0.79260000  0.05400000  0.67460000  1
  C  C41  1  0.05400000  0.79260000  0.32540000  1
  C  C42  1  0.75616667  0.08943333  0.42110000  1
  C  C43  1  0.08940000  0.75620000  0.57890000  1
  C  C44  1  0.79590000  0.04050000  0.04580000  1
  C  C45  1  0.04050000  0.79590000  0.95420000  1
  C  C46  1  0.81150000  0.02290000  0.23710000  1
  C  C47  1  0.02290000  0.81150000  0.76290000  1
  C  C48  1  0.72380000  0.10360000  0.63160000  1
  C  C49  1  0.10360000  0.72380000  0.36840000  1
  C  C50  1  0.87590000  0.94530000  0.76180000  1
  C  C51  1  0.94530000  0.87590000  0.23820000  1
  C  C52  1  0.82950000  0.99050000  0.26600000  1
  C  C53  1  0.99050000  0.82950000  0.73400000  1
  C  C54  1  0.81500000  0.99380000  0.72400000  1
  C  C55  1  0.99380000  0.81500000  0.27600000  1
  C  C56  1  0.78490000  0.01930000  0.50440000  1
  C  C57  1  0.01930000  0.78490000  0.49560000  1
  C  C58  1  0.87120000  0.92880000  0.31786000  1
  C  C59  1  0.92880000  0.87120000  0.68214000  1
  C  C60  1  0.73790000  0.05530000  0.68560000  1
  C  C61  1  0.05530000  0.73790000  0.31440000  1
  C  C62  1  0.78290000  0.00050000  0.07510000  1
  C  C63  1  0.70340000  0.08000000  0.66420000  1
  C  C64  1  0.08000000  0.70340000  0.33580000  1
  C  C65  1  0.00050000  0.78290000  0.92490000  1
  C  C66  1  0.87950000  0.89930000  0.18190000  1
  C  C67  1  0.89930000  0.87950000  0.81810000  1
  C  C68  1  0.68850000  0.08270000  0.17850000  1
  C  C69  1  0.08270000  0.68850000  0.82150000  1
  C  C70  1  0.84150000  0.91210000  0.15380000  1
  C  C71  1  0.91210000  0.84150000  0.84620000  1
  C  C72  1  0.83310000  0.91490000  0.62400000  1
  C  C73  1  0.91490000  0.83310000  0.37600000  1
  C  C74  1  0.81380000  0.93100000  0.26580000  1
  C  C75  1  0.93100000  0.81380000  0.73420000  1
  C  C76  1  0.78540000  0.95820000  0.57520000  1
  C  C77  1  0.95820000  0.78540000  0.42480000  1
  C  C78  1  0.74080000  0.99880000  0.52650000  1
  C  C79  1  0.99880000  0.74080000  0.47350000  1
  C  C80  1  0.84380000  0.89540000  0.65640000  1
  C  C81  1  0.89540000  0.84380000  0.34360000  1
  C  C82  1  0.83160000  0.90660000  0.77860000  1
  C  C83  1  0.90660000  0.83160000  0.22140000  1
  C  C84  1  0.83460000  0.90020000  0.29170000  1
  C  C85  1  0.90020000  0.83460000  0.70830000  1
  C  C86  1  0.64250000  0.07710000  0.67330000  1
  C  C87  1  0.07710000  0.64250000  0.32670000  1
  C  C88  1  0.78220000  0.93500000  0.60920000  1
  C  C89  1  0.93500000  0.78220000  0.39080000  1
  C  C90  1  0.84330000  0.87370000  0.80680000  1
  C  C91  1  0.87370000  0.84330000  0.19320000  1
  C  C92  1  0.73810000  0.97350000  0.56061000  1
  C  C93  1  0.97350000  0.73810000  0.43939000  1
  C  C94  1  0.62620000  0.07940000  0.17470000  1
  C  C95  1  0.07940000  0.62620000  0.82530000  1
  C  C96  1  0.59480000  0.10180000  0.19950000  1
  C  C97  1  0.10180000  0.59480000  0.80050000  1
  C  C98  1  0.59890000  0.08810000  0.65350000  1
  C  C99  1  0.08810000  0.59890000  0.34650000  1
  C  C100  1  0.73170000  0.92710000  0.62851000  1
  C  C101  1  0.92710000  0.73170000  0.37149000  1
  C  C102  1  0.60070000  0.05590000  0.14330000  1
  C  C103  1  0.05590000  0.60070000  0.85670000  1
  C  C104  1  0.68760000  0.96540000  0.57990000  1
  C  C105  1  0.96540000  0.68760000  0.42010000  1
  C  C106  1  0.53770000  0.10070000  0.19290000  1
  C  C107  1  0.10070000  0.53770000  0.80710000  1
  C  C108  1  0.68440000  0.94220000  0.61390000  1
  C  C109  1  0.94220000  0.68440000  0.38610000  1
  C  C110  1  0.54360000  0.05480000  0.13670000  1
  C  C111  1  0.05480000  0.54360000  0.86330000  1
  C  C112  1  0.48350000  0.11230000  0.63590000  1
  C  C113  1  0.11230000  0.48350000  0.36410000  1
  C  C114  1  0.49880000  0.09180000  0.66800000  1
  C  C115  1  0.09180000  0.49880000  0.33200000  1
  C  C116  1  0.51210000  0.07710000  0.16150000  1
  C  C117  1  0.07710000  0.51210000  0.83850000  1
  C  C118  1  0.67260000  0.90440000  0.14530000  1
  C  C119  1  0.90440000  0.67260000  0.85470000  1
  C  C120  1  0.63160000  0.93360000  0.63500000  1
  C  C121  1  0.93360000  0.63160000  0.36500000  1
  C  C122  1  0.42650000  0.11010000  0.62860000  1
  C  C123  1  0.11010000  0.42650000  0.37140000  1
  C  C124  1  0.60006667  0.93333333  0.18570000  1
  C  C125  1  0.93330000  0.60010000  0.81430000  1
  C  C126  1  0.61550000  0.91270000  0.15350000  1
  C  C127  1  0.91270000  0.61550000  0.84650000  1
  C  C128  1  0.45690000  0.06890000  0.69290000  1
  C  C129  1  0.06890000  0.45690000  0.30710000  1
  C  C130  1  0.57820000  0.94260000  0.62810000  1
  C  C131  1  0.94260000  0.57820000  0.37190000  1
  C  C132  1  0.42180000  0.05740000  0.12810000  1
  C  C133  1  0.05740000  0.42180000  0.87190000  1
  C  C134  1  0.54310000  0.93110000  0.19290000  1
  C  C135  1  0.93110000  0.54310000  0.80710000  1
  C  C136  1  0.38450000  0.08730000  0.65350000  1
  C  C137  1  0.08730000  0.38450000  0.34650000  1
  C  C138  1  0.39990000  0.06670000  0.68570000  1
  C  C139  1  0.06666667  0.39993333  0.31430000  1
  C  C140  1  0.57350000  0.88990000  0.12860000  1
  C  C141  1  0.88990000  0.57350000  0.87140000  1
  C  C142  1  0.36840000  0.06640000  0.13500000  1
  C  C143  1  0.06640000  0.36840000  0.86500000  1
  C  C144  1  0.32740000  0.09560000  0.64530000  1
  C  C145  1  0.09560000  0.32740000  0.35470000  1
  C  C146  1  0.48790000  0.92290000  0.66150000  1
  C  C147  1  0.92290000  0.48790000  0.33850000  1
  C  C148  1  0.50120000  0.90820000  0.16800000  1
  C  C149  1  0.90820000  0.50120000  0.83200000  1
  C  C150  1  0.51650000  0.88770000  0.13590000  1
  C  C151  1  0.88770000  0.51650000  0.86410000  1
  C  C152  1  0.45640000  0.94520000  0.63670000  1
  C  C153  1  0.94520000  0.45640000  0.36330000  1
  C  C154  1  0.31560000  0.05780000  0.11390000  1
  C  C155  1  0.05780000  0.31560000  0.88610000  1
  C  C156  1  0.46230000  0.89930000  0.69290000  1
  C  C157  1  0.89930000  0.46230000  0.30710000  1
  C  C158  1  0.31240000  0.03460000  0.07990000  1
  C  C159  1  0.03460000  0.31240000  0.92010000  1
  C  C160  1  0.39930000  0.94410000  0.64330000  1
  C  C161  1  0.94410000  0.39930000  0.35670000  1
  C  C162  1  0.26830000  0.07290000  0.12851000  1
  C  C163  1  0.07290000  0.26830000  0.87149000  1
  C  C164  1  0.40110000  0.91190000  0.15350000  1
  C  C165  1  0.91190000  0.40110000  0.84650000  1
  C  C166  1  0.40520000  0.89820000  0.69950000  1
  C  C167  1  0.89820000  0.40520000  0.30050000  1
  C  C168  1  0.37380000  0.92060000  0.67470000  1
  C  C169  1  0.92060000  0.37380000  0.32530000  1
  C  C170  1  0.26190000  0.02650000  0.06061000  1
  C  C171  1  0.02650000  0.26190000  0.93939000  1
  C  C172  1  0.15670000  0.12630000  0.30680000  1
  C  C173  1  0.12630000  0.15670000  0.69320000  1
  C  C174  1  0.21780000  0.06500000  0.10920000  1
  C  C175  1  0.06500000  0.21780000  0.89080000  1
  C  C176  1  0.35750000  0.92290000  0.17330000  1
  C  C177  1  0.92290000  0.35750000  0.82670000  1
  C  C178  1  0.16540000  0.09980000  0.79170000  1
  C  C179  1  0.09980000  0.16540000  0.20830000  1
  C  C180  1  0.16840000  0.09340000  0.27860000  1
  C  C181  1  0.09340000  0.16840000  0.72140000  1
  C  C182  1  0.15620000  0.10460000  0.15640000  1
  C  C183  1  0.10460000  0.15620000  0.84360000  1
  C  C184  1  0.25920000  0.00120000  0.02650000  1
  C  C185  1  0.00120000  0.25920000  0.97350000  1
  C  C186  1  0.21460000  0.04180000  0.07520000  1
  C  C187  1  0.04180000  0.21460000  0.92480000  1
  C  C188  1  0.18620000  0.06900000  0.76580000  1
  C  C189  1  0.06900000  0.18620000  0.23420000  1
  C  C190  1  0.16690000  0.08510000  0.12400000  1
  C  C191  1  0.08510000  0.16690000  0.87600000  1
  C  C192  1  0.15850000  0.08790000  0.65380000  1
  C  C193  1  0.08790000  0.15850000  0.34620000  1
  C  C194  1  0.31150000  0.91730000  0.67850000  1
  C  C195  1  0.91730000  0.31150000  0.32150000  1
  C  C196  1  0.12050000  0.10070000  0.68190000  1
  C  C197  1  0.10070000  0.12050000  0.31810000  1
  C  C198  1  0.29660000  0.92000000  0.16420000  1
  C  C199  1  0.21710000  0.99950000  0.57510000  1
  C  C200  1  0.99950000  0.21710000  0.42490000  1
  C  C201  1  0.92000000  0.29660000  0.83580000  1
  C  C202  1  0.26210000  0.94470000  0.18560000  1
  C  C203  1  0.94470000  0.26210000  0.81440000  1
  C  C204  1  0.12880000  0.07120000  0.81786000  1
  C  C205  1  0.07120000  0.12880000  0.18214000  1
  C  C206  1  0.21510000  0.98070000  0.00440000  1
  C  C207  1  0.98070000  0.21510000  0.99560000  1
  C  C208  1  0.18500000  0.00620000  0.22400000  1
  C  C209  1  0.00620000  0.18500000  0.77600000  1
  C  C210  1  0.17050000  0.00950000  0.76600000  1
  C  C211  1  0.00950000  0.17050000  0.23400000  1
  C  C212  1  0.12410000  0.05470000  0.26180000  1
  C  C213  1  0.05470000  0.12410000  0.73820000  1
  C  C214  1  0.27620000  0.89640000  0.13160000  1
  C  C215  1  0.89640000  0.27620000  0.86840000  1
  C  C216  1  0.18850000  0.97710000  0.73710000  1
  C  C217  1  0.97710000  0.18850000  0.26290000  1
  C  C218  1  0.20410000  0.95950000  0.54580000  1
  C  C219  1  0.95950000  0.20410000  0.45420000  1
  C  C220  1  0.24380000  0.91060000  0.92110000  1
  C  C221  1  0.91056667  0.24383333  0.07890000  1
  C  C222  1  0.20740000  0.94600000  0.17460000  1
  C  C223  1  0.94600000  0.20740000  0.82540000  1
  C  C224  1  0.21280000  0.93880000  0.94301000  1
  C  C225  1  0.93880000  0.21280000  0.05699000  1
  C  C226  1  0.17670000  0.97450000  0.51600000  1
  C  C227  1  0.97450000  0.17670000  0.48400000  1
  C  C228  1  0.17170000  0.97370000  0.19590000  1
  C  C229  1  0.97370000  0.17170000  0.80410000  1
  C  C230  1  0.08180000  0.05640000  0.69870000  1
  C  C231  1  0.05640000  0.08180000  0.30130000  1
  C  C232  1  0.11310000  0.01170000  0.81812000  1
  C  C233  1  0.01170000  0.11310000  0.18188000  1
  C  C234  1  0.21540000  0.90560000  0.54800000  1
  C  C235  1  0.90560000  0.21540000  0.45200000  1
  C  C236  1  0.22150000  0.89770000  0.12050000  1
  C  C237  1  0.89770000  0.22150000  0.87950000  1
  C  C238  1  0.06800000  0.04900000  0.27320000  1
  C  C239  1  0.04900000  0.06800000  0.72680000  1
  C  C240  1  0.13400000  0.98100000  0.79220000  1
  C  C241  1  0.98100000  0.13400000  0.20780000  1
  C  C242  1  0.18700000  0.92240000  0.14200000  1
  C  C243  1  0.92240000  0.18700000  0.85800000  1
  C  C244  1  0.21840000  0.88240000  0.89092000  1
  C  C245  1  0.88240000  0.21840000  0.10908000  1
  C  C246  1  0.16070000  0.93550000  0.48840000  1
  C  C247  1  0.93550000  0.16070000  0.51160000  1
  C  C248  1  0.15660000  0.93860000  0.93460000  1
  C  C249  1  0.93860000  0.15660000  0.06540000  1
  C  C250  1  0.20170000  0.87250000  0.08420000  1
  C  C251  1  0.87250000  0.20170000  0.91580000  1
  C  C252  1  0.19940000  0.86680000  0.52040000  1
  C  C253  1  0.86680000  0.19940000  0.47960000  1
  C  C254  1  0.17210000  0.88170000  0.49060000  1
  C  C255  1  0.88170000  0.17210000  0.50940000  1
  C  C256  1  0.16220000  0.88220000  0.88256000  1
  C  C257  1  0.88220000  0.16220000  0.11744000  1
  C  C258  1  0.13120000  0.91040000  0.90440000  1
  C  C259  1  0.91040000  0.13120000  0.09560000  1
  C  C260  1  0.15490000  0.87030000  0.06750000  1
  C  C261  1  0.87030000  0.15490000  0.93250000  1
  C  C262  1  0.14860000  0.86620000  0.64880000  1
  C  C263  1  0.86620000  0.14860000  0.35120000  1
  H  H264  1  0.90650000  0.08970000  0.39880000  1
  H  H265  1  0.08970000  0.90650000  0.60120000  1
  H  H266  1  0.87540000  0.11520000  0.57540000  1
  H  H267  1  0.11520000  0.87540000  0.42460000  1
  H  H268  1  0.79310000  0.16930000  0.02190000  1
  H  H269  1  0.16930000  0.79310000  0.97810000  1
  H  H270  1  0.96160000  0.97680000  0.76190000  1
  H  H271  1  0.97680000  0.96160000  0.23810000  1
  H  H272  1  0.87660000  0.05880000  0.29240000  1
  H  H273  1  0.05880000  0.87660000  0.70760000  1
  H  H274  1  0.84960000  0.07680000  0.63460000  1
  H  H275  1  0.07680000  0.84960000  0.36540000  1
  H  H276  1  0.91140000  0.00740000  0.33560000  1
  H  H277  1  0.00740000  0.91140000  0.66440000  1
  H  H278  1  0.85750000  0.05450000  0.96850000  1
  H  H279  1  0.05450000  0.85750000  0.03150000  1
  H  H280  1  0.86420000  0.04260000  0.44930000  1
  H  H281  1  0.04260000  0.86420000  0.55070000  1
  H  H282  1  0.92210000  0.98110000  0.19110000  1
  H  H283  1  0.98110000  0.92210000  0.80890000  1
  H  H284  1  0.76090000  0.13650000  0.37630000  1
  H  H285  1  0.13650000  0.76090000  0.62370000  1
  H  H286  1  0.76630000  0.10430000  0.06790000  1
  H  H287  1  0.10430000  0.76630000  0.93210000  1
  H  H288  1  0.82340000  0.02340000  0.50960000  1
  H  H289  1  0.02340000  0.82340000  0.49040000  1
  H  H290  1  0.70070000  0.12010000  0.61720000  1
  H  H291  1  0.12010000  0.70070000  0.38280000  1
  H  H292  1  0.83090000  0.98950000  0.01450000  1
  H  H293  1  0.98950000  0.83090000  0.98550000  1
  H  H294  1  0.71860000  0.08940000  0.42670000  1
  H  H295  1  0.08940000  0.71860000  0.57330000  1
  H  H296  1  0.81920000  0.96360000  0.56230000  1
  H  H297  1  0.96360000  0.81920000  0.43770000  1
  H  H298  1  0.72420000  0.03960000  0.70740000  1
  H  H299  1  0.03960000  0.72420000  0.29260000  1
  H  H300  1  0.77900000  0.98260000  0.73420000  1
  H  H301  1  0.98260000  0.77900000  0.26580000  1
  H  H302  1  0.61190000  0.11750000  0.22050000  1
  H  H303  1  0.11750000  0.61190000  0.77950000  1
  H  H304  1  0.81780000  0.88580000  0.67490000  1
  H  H305  1  0.88580000  0.81780000  0.32510000  1
  H  H306  1  0.78930000  0.91190000  0.24820000  1
  H  H307  1  0.91190000  0.78930000  0.75180000  1
  H  H308  1  0.60110000  0.09950000  0.62990000  1
  H  H309  1  0.09950000  0.60110000  0.37010000  1
  H  H310  1  0.79410000  0.90270000  0.77110000  1
  H  H311  1  0.90270000  0.79410000  0.22890000  1
  H  H312  1  0.82410000  0.86050000  0.29150000  1
  H  H313  1  0.86050000  0.82410000  0.70850000  1
  H  H314  1  0.62170000  0.04090000  0.12670000  1
  H  H315  1  0.04090000  0.62170000  0.87330000  1
  H  H316  1  0.81360000  0.84780000  0.81800000  1
  H  H317  1  0.84780000  0.81360000  0.18200000  1
  H  H318  1  0.72960000  0.91160000  0.65120000  1
  H  H319  1  0.91160000  0.72960000  0.34880000  1
  H  H320  1  0.51160000  0.12760000  0.61920000  1
  H  H321  1  0.12760000  0.51160000  0.38080000  1
  H  H322  1  0.51670000  0.11570000  0.20950000  1
  H  H323  1  0.11570000  0.51670000  0.79050000  1
  H  H324  1  0.65600000  0.97560000  0.57010000  1
  H  H325  1  0.97560000  0.65600000  0.42990000  1
  H  H326  1  0.62820000  0.94860000  0.20230000  1
  H  H327  1  0.94860000  0.62820000  0.79770000  1
  H  H328  1  0.52640000  0.03900000  0.11570000  1
  H  H329  1  0.03900000  0.52640000  0.88430000  1
  H  H330  1  0.41620000  0.12380000  0.60710000  1
  H  H331  1  0.12380000  0.41620000  0.39290000  1
  H  H332  1  0.56740000  0.95880000  0.60760000  1
  H  H333  1  0.95880000  0.56740000  0.39240000  1
  H  H334  1  0.46720000  0.05520000  0.71440000  1
  H  H335  1  0.05520000  0.46720000  0.28560000  1
  H  H336  1  0.53280000  0.94480000  0.21440000  1
  H  H337  1  0.94480000  0.53280000  0.78560000  1
  H  H338  1  0.43260000  0.04120000  0.10760000  1
  H  H339  1  0.04120000  0.43260000  0.89240000  1
  H  H340  1  0.58380000  0.87620000  0.10710000  1
  H  H341  1  0.87620000  0.58380000  0.89290000  1
  H  H342  1  0.47360000  0.96100000  0.61570000  1
  H  H343  1  0.96100000  0.47360000  0.38430000  1
  H  H344  1  0.37180000  0.05140000  0.70230000  1
  H  H345  1  0.05140000  0.37180000  0.29770000  1
  H  H346  1  0.34400000  0.02440000  0.07010000  1
  H  H347  1  0.02440000  0.34400000  0.92990000  1
  H  H348  1  0.48330000  0.88430000  0.70950000  1
  H  H349  1  0.88430000  0.48330000  0.29050000  1
  H  H350  1  0.48840000  0.87240000  0.11920000  1
  H  H351  1  0.87240000  0.48840000  0.88080000  1
  H  H352  1  0.27040000  0.08840000  0.15120000  1
  H  H353  1  0.08840000  0.27040000  0.84880000  1
  H  H354  1  0.18640000  0.15220000  0.31800000  1
  H  H355  1  0.15220000  0.18640000  0.68200000  1
  H  H356  1  0.37830000  0.95910000  0.62670000  1
  H  H357  1  0.95910000  0.37830000  0.37330000  1
  H  H358  1  0.17590000  0.13950000  0.79150000  1
  H  H359  1  0.13950000  0.17590000  0.20850000  1
  H  H360  1  0.20590000  0.09730000  0.27110000  1
  H  H361  1  0.09730000  0.20590000  0.72890000  1
  H  H362  1  0.39890000  0.90050000  0.12990000  1
  H  H363  1  0.90050000  0.39890000  0.87010000  1
  H  H364  1  0.21070000  0.08810000  0.74820000  1
  H  H365  1  0.08810000  0.21070000  0.25180000  1
  H  H366  1  0.18220000  0.11420000  0.17490000  1
  H  H367  1  0.11420000  0.18220000  0.82510000  1
  H  H368  1  0.38810000  0.88250000  0.72050000  1
  H  H369  1  0.88250000  0.38810000  0.27950000  1
  H  H370  1  0.22100000  0.01740000  0.23420000  1
  H  H371  1  0.01740000  0.22100000  0.76580000  1
  H  H372  1  0.27580000  0.96040000  0.20740000  1
  H  H373  1  0.96040000  0.27580000  0.79260000  1
  H  H374  1  0.18080000  0.03640000  0.06230000  1
  H  H375  1  0.03640000  0.18080000  0.93770000  1
  H  H376  1  0.28140000  0.91060000  0.92670000  1
  H  H377  1  0.91060000  0.28140000  0.07330000  1
  H  H378  1  0.16910000  0.01050000  0.51450000  1
  H  H379  1  0.01050000  0.16910000  0.48550000  1
  H  H380  1  0.29930000  0.87990000  0.11720000  1
  H  H381  1  0.87990000  0.29930000  0.88280000  1
  H  H382  1  0.17660000  0.97660000  0.00960000  1
  H  H383  1  0.97660000  0.17660000  0.99040000  1
  H  H384  1  0.23370000  0.89570000  0.56790000  1
  H  H385  1  0.89570000  0.23370000  0.43210000  1
  H  H386  1  0.23910000  0.86350000  0.87630000  1
  H  H387  1  0.86350000  0.23910000  0.12370000  1
  H  H388  1  0.07790000  0.01890000  0.69110000  1
  H  H389  1  0.01890000  0.07790000  0.30890000  1
  H  H390  1  0.13580000  0.95740000  0.94930000  1
  H  H391  1  0.95740000  0.13580000  0.05070000  1
  H  H392  1  0.14250000  0.94550000  0.46850000  1
  H  H393  1  0.94550000  0.14250000  0.53150000  1
  H  H394  1  0.08860000  0.99260000  0.83560000  1
  H  H395  1  0.99260000  0.08860000  0.16440000  1
  H  H396  1  0.15040000  0.92320000  0.13460000  1
  H  H397  1  0.92320000  0.15040000  0.86540000  1
  H  H398  1  0.12340000  0.94120000  0.79240000  1
  H  H399  1  0.94120000  0.12340000  0.20760000  1
  H  H400  1  0.03840000  0.02320000  0.26190000  1
  H  H401  1  0.02320000  0.03840000  0.73810000  1
  H  H402  1  0.20690000  0.83070000  0.52190000  1
  H  H403  1  0.83070000  0.20690000  0.47810000  1
  H  H404  1  0.12460000  0.88480000  0.07540000  1
  H  H405  1  0.88480000  0.12460000  0.92460000  1
  H  H406  1  0.09350000  0.91030000  0.89880000  1
  H  H407  1  0.91030000  0.09350000  0.10120000  1
  N  N408  1  0.84280000  0.15560000  0.53800000  1
  N  N409  1  0.15560000  0.84280000  0.46200000  1
  N  N410  1  0.79470000  0.16950000  0.53650000  1
  N  N411  1  0.16950000  0.79470000  0.46350000  1
  N  N412  1  0.76710000  0.15190000  0.56510000  1
  N  N413  1  0.15190000  0.76710000  0.43490000  1
  N  N414  1  0.88300000  0.03260000  0.68960000  1
  N  N415  1  0.03260000  0.88300000  0.31040000  1
  N  N416  1  0.90370000  0.00390000  0.71390000  1
  N  N417  1  0.00390000  0.90370000  0.28610000  1
  N  N418  1  0.86150000  0.97990000  0.73510000  1
  N  N419  1  0.97990000  0.86150000  0.26490000  1
  N  N420  1  0.90990000  0.92270000  0.37490000  1
  N  N421  1  0.92270000  0.90990000  0.62510000  1
  N  N422  1  0.88180000  0.92380000  0.60470000  1
  N  N423  1  0.92380000  0.88180000  0.39530000  1
  N  N424  1  0.76340000  0.03280000  0.47338000  1
  N  N425  1  0.03280000  0.76340000  0.52662000  1
  N  N426  1  0.89240000  0.89920000  0.34290000  1
  N  N427  1  0.89920000  0.89240000  0.65710000  1
  N  N428  1  0.70600000  0.02060000  0.47640000  1
  N  N429  1  0.02060000  0.70600000  0.52360000  1
  N  N430  1  0.69200000  0.99980000  0.50920000  1
  N  N431  1  0.99980000  0.69200000  0.49080000  1
  N  N432  1  0.62210000  0.06170000  0.70650000  1
  N  N433  1  0.06170000  0.62210000  0.29350000  1
  N  N434  1  0.55160000  0.07940000  0.67450000  1
  N  N435  1  0.07940000  0.55160000  0.32550000  1
  N  N436  1  0.56580000  0.06300000  0.70720000  1
  N  N437  1  0.06300000  0.56580000  0.29280000  1
  N  N438  1  0.63000000  0.90860000  0.66800000  1
  N  N439  1  0.90860000  0.63000000  0.33200000  1
  N  N440  1  0.45630000  0.07690000  0.15690000  1
  N  N441  1  0.07690000  0.45630000  0.84310000  1
  N  N442  1  0.42430000  0.09790000  0.18140000  1
  N  N443  1  0.09790000  0.42430000  0.81860000  1
  N  N444  1  0.57570000  0.90210000  0.68140000  1
  N  N445  1  0.90210000  0.57570000  0.31860000  1
  N  N446  1  0.54370000  0.92310000  0.65690000  1
  N  N447  1  0.92310000  0.54370000  0.34310000  1
  N  N448  1  0.37000000  0.09140000  0.16800000  1
  N  N449  1  0.09140000  0.37000000  0.83200000  1
  N  N450  1  0.43420000  0.93700000  0.20720000  1
  N  N451  1  0.93700000  0.43420000  0.79280000  1
  N  N452  1  0.44840000  0.92060000  0.17450000  1
  N  N453  1  0.92060000  0.44840000  0.82550000  1
  N  N454  1  0.37790000  0.93830000  0.20650000  1
  N  N455  1  0.93830000  0.37790000  0.79350000  1
  N  N456  1  0.30800000  0.00020000  0.00920000  1
  N  N457  1  0.00020000  0.30800000  0.99080000  1
  N  N458  1  0.29400000  0.97940000  0.97640000  1
  N  N459  1  0.97940000  0.29400000  0.02360000  1
  N  N460  1  0.10760000  0.10080000  0.84290000  1
  N  N461  1  0.10080000  0.10760000  0.15710000  1
  N  N462  1  0.23660000  0.96720000  0.97338000  1
  N  N463  1  0.96720000  0.23660000  0.02662000  1
  N  N464  1  0.11820000  0.07620000  0.10470000  1
  N  N465  1  0.07620000  0.11820000  0.89530000  1
  N  N466  1  0.09010000  0.07730000  0.87490000  1
  N  N467  1  0.07730000  0.09010000  0.12510000  1
  N  N468  1  0.13850000  0.02010000  0.23510000  1
  N  N469  1  0.02010000  0.13850000  0.76490000  1
  N  N470  1  0.09630000  0.99610000  0.21390000  1
  N  N471  1  0.99610000  0.09630000  0.78610000  1
  N  N472  1  0.11700000  0.96740000  0.18960000  1
  N  N473  1  0.96740000  0.11700000  0.81040000  1
  N  N474  1  0.23290000  0.84810000  0.06510000  1
  N  N475  1  0.84810000  0.23290000  0.93490000  1
  N  N476  1  0.20530000  0.83050000  0.03650000  1
  N  N477  1  0.83050000  0.20530000  0.96350000  1
  N  N478  1  0.15720000  0.84440000  0.03800000  1
  N  N479  1  0.84440000  0.15720000  0.96200000  1
  O  O480  1  0.80240000  0.19760000  0.25000000  1
  O  O481  1  0.19760000  0.80240000  0.75000000  1
  O  O482  1  0.83310000  0.16450000  0.17119000  1
  O  O483  1  0.16450000  0.83310000  0.82881000  1
  O  O484  1  0.84700000  0.08120000  0.15490000  1
  O  O485  1  0.08120000  0.84700000  0.84510000  1
  O  O486  1  0.82160000  0.07760000  0.24232000  1
  O  O487  1  0.07760000  0.82160000  0.75768000  1
  O  O488  1  0.71240000  0.11020000  0.20460000  1
  O  O489  1  0.11020000  0.71240000  0.79540000  1
  O  O490  1  0.83730000  0.96230000  0.14830000  1
  O  O491  1  0.96230000  0.83730000  0.85170000  1
  O  O492  1  0.78540000  0.99820000  0.21140000  1
  O  O493  1  0.99820000  0.78540000  0.78860000  1
  O  O494  1  0.76130000  0.01290000  0.10260000  1
  O  O495  1  0.01290000  0.76130000  0.89740000  1
  O  O496  1  0.71390000  0.05430000  0.15780000  1
  O  O497  1  0.05430000  0.71390000  0.84220000  1
  O  O498  1  0.78540000  0.94900000  0.06740000  1
  O  O499  1  0.94900000  0.78540000  0.93260000  1
  O  O500  1  0.81120000  0.86880000  0.13790000  1
  O  O501  1  0.86880000  0.81120000  0.86210000  1
  O  O502  1  0.71230000  0.93710000  0.16140000  1
  O  O503  1  0.93710000  0.71230000  0.83860000  1
  O  O504  1  0.67900000  0.88640000  0.11500000  1
  O  O505  1  0.88640000  0.67900000  0.88500000  1
  O  O506  1  0.32100000  0.11360000  0.61500000  1
  O  O507  1  0.11360000  0.32100000  0.38500000  1
  O  O508  1  0.28770000  0.06290000  0.66140000  1
  O  O509  1  0.06290000  0.28770000  0.33860000  1
  O  O510  1  0.18880000  0.13120000  0.63790000  1
  O  O511  1  0.13120000  0.18880000  0.36210000  1
  O  O512  1  0.21460000  0.05100000  0.56740000  1
  O  O513  1  0.05100000  0.21460000  0.43260000  1
  O  O514  1  0.28610000  0.94570000  0.65780000  1
  O  O515  1  0.94570000  0.28610000  0.34220000  1
  O  O516  1  0.23870000  0.98710000  0.60260000  1
  O  O517  1  0.98710000  0.23870000  0.39740000  1
  O  O518  1  0.21460000  0.00180000  0.71140000  1
  O  O519  1  0.00180000  0.21460000  0.28860000  1
  O  O520  1  0.16270000  0.03770000  0.64830000  1
  O  O521  1  0.03770000  0.16270000  0.35170000  1
  O  O522  1  0.28760000  0.88980000  0.70460000  1
  O  O523  1  0.88980000  0.28760000  0.29540000  1
  O  O524  1  0.17840000  0.92240000  0.74232000  1
  O  O525  1  0.92240000  0.17840000  0.25768000  1
  O  O526  1  0.15300000  0.91880000  0.65490000  1
  O  O527  1  0.91880000  0.15300000  0.34510000  1
  O  O528  1  0.16690000  0.83550000  0.67119000  1
  O  O529  1  0.83550000  0.16690000  0.32881000  1
  Zn  Zn530  1  0.79408000  0.13230000  0.21367000  1
  Zn  Zn531  1  0.13230000  0.79408000  0.78633000  1
  Zn  Zn532  1  0.77657000  0.00947000  0.15762000  1
  Zn  Zn533  1  0.00947000  0.77657000  0.84238000  1
  Zn  Zn534  1  0.75839000  0.88647000  0.10180000  1
  Zn  Zn535  1  0.88647000  0.75839000  0.89820000  1
  Zn  Zn536  1  0.24161000  0.11353000  0.60180000  1
  Zn  Zn537  1  0.11353000  0.24161000  0.39820000  1
  Zn  Zn538  1  0.22343000  0.99053000  0.65762000  1
  Zn  Zn539  1  0.99053000  0.22343000  0.34238000  1
  Zn  Zn540  1  0.20592000  0.86770000  0.71367000  1
  Zn  Zn541  1  0.86770000  0.20592000  0.28633000  1
