# generated using pymatgen
data_ZnH27C28N4O5
_symmetry_space_group_name_H-M   'P 1'
_cell_length_a   9.38980000
_cell_length_b   17.09170000
_cell_length_c   19.86010000
_cell_angle_alpha   90.00000000
_cell_angle_beta   90.00000000
_cell_angle_gamma   100.42800000
_symmetry_Int_Tables_number   1
_chemical_formula_structural   ZnH27C28N4O5
_chemical_formula_sum   'Zn4 H108 C112 N16 O20'
_cell_volume   3134.65645703
_cell_formula_units_Z   4
loop_
 _symmetry_equiv_pos_site_id
 _symmetry_equiv_pos_as_xyz
  1  'x, y, z'
loop_
 _atom_site_type_symbol
 _atom_site_label
 _atom_site_symmetry_multiplicity
 _atom_site_fract_x
 _atom_site_fract_y
 _atom_site_fract_z
 _atom_site_occupancy
  Zn  Zn0  1  0.06707000  0.27810000  0.81870000  1
  Zn  Zn1  1  0.43293000  0.22190000  0.31870000  1
  Zn  Zn2  1  0.56707000  0.77810000  0.68130000  1
  Zn  Zn3  1  0.93293000  0.72190000  0.18130000  1
  H  H4  1  0.01310000  0.20370000  0.16000000  1
  H  H5  1  0.01870000  0.40090000  0.11210000  1
  H  H6  1  0.03350000  0.65300000  0.60350000  1
  H  H7  1  0.05000000  0.14140000  0.49070000  1
  H  H8  1  0.05330000  0.98490000  0.11280000  1
  H  H9  1  0.05520000  0.17570000  0.93490000  1
  H  H10  1  0.06170000  0.32130000  0.57650000  1
  H  H11  1  0.07920000  0.34480000  0.06120000  1
  H  H12  1  0.07970000  0.78300000  0.31830000  1
  H  H13  1  0.11900000  0.55770000  0.30940000  1
  H  H14  1  0.11920000  0.12540000  0.75820000  1
  H  H15  1  0.12050000  0.25620000  0.61810000  1
  H  H16  1  0.12440000  0.70310000  0.00420000  1
  H  H17  1  0.12610000  0.76990000  0.51600000  1
  H  H18  1  0.14440000  0.71240000  0.34920000  1
  H  H19  1  0.15910000  0.16160000  0.23940000  1
  H  H20  1  0.16310000  0.96930000  0.85400000  1
  H  H21  1  0.16750000  0.69120000  0.80650000  1
  H  H22  1  0.17460000  0.70570000  0.46900000  1
  H  H23  1  0.19010000  0.63340000  0.97220000  1
  H  H24  1  0.19020000  0.15080000  0.02510000  1
  H  H25  1  0.19490000  0.12230000  0.40180000  1
  H  H26  1  0.21490000  0.96340000  0.03050000  1
  H  H27  1  0.21560000  0.62620000  0.85280000  1
  H  H28  1  0.21670000  0.94190000  0.23300000  1
  H  H29  1  0.24020000  0.42220000  0.18030000  1
  H  H30  1  0.24840000  0.56980000  0.40780000  1
  H  H31  1  0.25160000  0.93020000  0.90780000  1
  H  H32  1  0.25980000  0.07780000  0.68030000  1
  H  H33  1  0.28330000  0.55810000  0.73300000  1
  H  H34  1  0.28440000  0.87380000  0.35280000  1
  H  H35  1  0.28510000  0.53660000  0.53050000  1
  H  H36  1  0.30510000  0.37770000  0.90180000  1
  H  H37  1  0.30980000  0.34920000  0.52510000  1
  H  H38  1  0.30990000  0.86660000  0.47220000  1
  H  H39  1  0.32540000  0.79430000  0.96900000  1
  H  H40  1  0.33250000  0.80880000  0.30650000  1
  H  H41  1  0.33690000  0.53070000  0.35400000  1
  H  H42  1  0.34090000  0.33840000  0.73940000  1
  H  H43  1  0.35560000  0.78760000  0.84920000  1
  H  H44  1  0.37390000  0.73010000  0.01600000  1
  H  H45  1  0.37560000  0.79690000  0.50420000  1
  H  H46  1  0.37950000  0.24380000  0.11810000  1
  H  H47  1  0.38080000  0.37460000  0.25820000  1
  H  H48  1  0.38100000  0.94230000  0.80940000  1
  H  H49  1  0.42030000  0.71700000  0.81830000  1
  H  H50  1  0.42080000  0.15520000  0.56120000  1
  H  H51  1  0.43830000  0.17870000  0.07650000  1
  H  H52  1  0.44480000  0.32430000  0.43490000  1
  H  H53  1  0.44670000  0.51510000  0.61280000  1
  H  H54  1  0.45000000  0.35860000  0.99070000  1
  H  H55  1  0.46650000  0.84700000  0.10350000  1
  H  H56  1  0.48130000  0.09910000  0.61210000  1
  H  H57  1  0.48690000  0.29630000  0.66000000  1
  H  H58  1  0.51310000  0.70370000  0.34000000  1
  H  H59  1  0.51870000  0.90090000  0.38790000  1
  H  H60  1  0.53350000  0.15300000  0.89650000  1
  H  H61  1  0.55000000  0.64140000  0.00930000  1
  H  H62  1  0.55330000  0.48490000  0.38720000  1
  H  H63  1  0.55520000  0.67570000  0.56510000  1
  H  H64  1  0.56170000  0.82130000  0.92350000  1
  H  H65  1  0.57920000  0.84480000  0.43880000  1
  H  H66  1  0.57970000  0.28300000  0.18170000  1
  H  H67  1  0.61900000  0.05770000  0.19060000  1
  H  H68  1  0.61920000  0.62540000  0.74180000  1
  H  H69  1  0.62050000  0.75620000  0.88190000  1
  H  H70  1  0.62440000  0.20310000  0.49580000  1
  H  H71  1  0.62610000  0.26990000  0.98400000  1
  H  H72  1  0.64440000  0.21240000  0.15080000  1
  H  H73  1  0.65910000  0.66160000  0.26060000  1
  H  H74  1  0.66310000  0.46930000  0.64600000  1
  H  H75  1  0.66750000  0.19120000  0.69350000  1
  H  H76  1  0.67460000  0.20570000  0.03100000  1
  H  H77  1  0.69010000  0.13340000  0.52780000  1
  H  H78  1  0.69020000  0.65080000  0.47490000  1
  H  H79  1  0.69490000  0.62230000  0.09820000  1
  H  H80  1  0.71490000  0.46340000  0.46950000  1
  H  H81  1  0.71560000  0.12620000  0.64720000  1
  H  H82  1  0.71670000  0.44190000  0.26700000  1
  H  H83  1  0.74020000  0.92220000  0.31970000  1
  H  H84  1  0.74840000  0.06980000  0.09220000  1
  H  H85  1  0.75160000  0.43020000  0.59220000  1
  H  H86  1  0.75980000  0.57780000  0.81970000  1
  H  H87  1  0.78330000  0.05810000  0.76700000  1
  H  H88  1  0.78440000  0.37380000  0.14720000  1
  H  H89  1  0.78510000  0.03660000  0.96950000  1
  H  H90  1  0.80510000  0.87770000  0.59820000  1
  H  H91  1  0.80980000  0.84920000  0.97490000  1
  H  H92  1  0.80990000  0.36660000  0.02780000  1
  H  H93  1  0.82540000  0.29430000  0.53100000  1
  H  H94  1  0.83250000  0.30880000  0.19350000  1
  H  H95  1  0.83690000  0.03070000  0.14600000  1
  H  H96  1  0.84090000  0.83840000  0.76060000  1
  H  H97  1  0.85560000  0.28760000  0.65080000  1
  H  H98  1  0.87390000  0.23010000  0.48400000  1
  H  H99  1  0.87560000  0.29690000  0.99580000  1
  H  H100  1  0.87950000  0.74380000  0.38190000  1
  H  H101  1  0.88080000  0.87460000  0.24180000  1
  H  H102  1  0.88100000  0.44230000  0.69060000  1
  H  H103  1  0.92030000  0.21700000  0.68170000  1
  H  H104  1  0.92080000  0.65520000  0.93880000  1
  H  H105  1  0.93830000  0.67870000  0.42350000  1
  H  H106  1  0.94480000  0.82430000  0.06510000  1
  H  H107  1  0.94670000  0.01510000  0.88720000  1
  H  H108  1  0.95000000  0.85860000  0.50930000  1
  H  H109  1  0.96650000  0.34700000  0.39650000  1
  H  H110  1  0.98130000  0.59910000  0.88790000  1
  H  H111  1  0.98690000  0.79630000  0.84000000  1
  C  C112  1  0.02740000  0.34610000  0.10330000  1
  C  C113  1  0.03150000  0.99090000  0.06760000  1
  C  C114  1  0.04520000  0.51400000  0.31520000  1
  C  C115  1  0.04730000  0.61220000  0.63240000  1
  C  C116  1  0.06180000  0.45360000  0.35940000  1
  C  C117  1  0.06940000  0.26540000  0.57730000  1
  C  C118  1  0.08460000  0.49190000  0.72080000  1
  C  C119  1  0.08860000  0.23990000  0.17870000  1
  C  C120  1  0.09980000  0.98740000  0.95100000  1
  C  C121  1  0.10700000  0.42730000  0.76850000  1
  C  C122  1  0.11200000  0.31740000  0.15870000  1
  C  C123  1  0.12810000  0.97830000  0.01800000  1
  C  C124  1  0.12950000  0.18040000  0.48010000  1
  C  C125  1  0.13680000  0.21290000  0.94600000  1
  C  C126  1  0.13950000  0.76830000  0.35430000  1
  C  C127  1  0.15880000  0.24890000  0.51790000  1
  C  C128  1  0.16790000  0.76150000  0.47250000  1
  C  C129  1  0.17700000  0.21490000  0.22680000  1
  C  C130  1  0.17700000  0.61720000  0.66710000  1
  C  C131  1  0.18410000  0.68920000  0.96780000  1
  C  C132  1  0.19380000  0.16080000  0.73790000  1
  C  C133  1  0.19560000  0.55590000  0.71060000  1
  C  C134  1  0.20490000  0.81200000  0.15750000  1
  C  C135  1  0.20900000  0.97650000  0.89780000  1
  C  C136  1  0.20980000  0.68220000  0.84970000  1
  C  C137  1  0.21720000  0.16910000  0.42640000  1
  C  C138  1  0.21790000  0.19730000  0.00030000  1
  C  C139  1  0.22260000  0.36830000  0.19070000  1
  C  C140  1  0.27740000  0.13170000  0.69070000  1
  C  C141  1  0.28210000  0.30270000  0.50030000  1
  C  C142  1  0.28280000  0.33090000  0.92640000  1
  C  C143  1  0.29020000  0.81780000  0.34970000  1
  C  C144  1  0.29100000  0.52350000  0.39780000  1
  C  C145  1  0.29510000  0.68800000  0.65750000  1
  C  C146  1  0.30440000  0.94410000  0.21060000  1
  C  C147  1  0.30620000  0.33920000  0.23790000  1
  C  C148  1  0.31590000  0.81080000  0.46780000  1
  C  C149  1  0.32300000  0.28510000  0.72680000  1
  C  C150  1  0.32300000  0.88280000  0.16710000  1
  C  C151  1  0.33210000  0.73850000  0.97250000  1
  C  C152  1  0.34120000  0.25110000  0.01790000  1
  C  C153  1  0.36050000  0.73170000  0.85430000  1
  C  C154  1  0.36320000  0.28710000  0.44600000  1
  C  C155  1  0.37050000  0.31960000  0.98010000  1
  C  C156  1  0.37190000  0.52170000  0.51800000  1
  C  C157  1  0.38800000  0.18260000  0.65870000  1
  C  C158  1  0.39300000  0.07270000  0.26850000  1
  C  C159  1  0.40020000  0.51260000  0.45100000  1
  C  C160  1  0.41140000  0.26010000  0.67870000  1
  C  C161  1  0.41540000  0.00810000  0.22080000  1
  C  C162  1  0.43060000  0.23460000  0.07730000  1
  C  C163  1  0.43820000  0.04640000  0.85940000  1
  C  C164  1  0.45270000  0.88780000  0.13240000  1
  C  C165  1  0.45480000  0.98600000  0.81520000  1
  C  C166  1  0.46850000  0.50910000  0.56760000  1
  C  C167  1  0.47260000  0.15390000  0.60330000  1
  C  C168  1  0.52740000  0.84610000  0.39670000  1
  C  C169  1  0.53150000  0.49090000  0.43240000  1
  C  C170  1  0.54520000  0.01400000  0.18480000  1
  C  C171  1  0.54730000  0.11220000  0.86760000  1
  C  C172  1  0.56180000  0.95360000  0.14060000  1
  C  C173  1  0.56940000  0.76540000  0.92270000  1
  C  C174  1  0.58460000  0.99190000  0.77920000  1
  C  C175  1  0.58860000  0.73990000  0.32130000  1
  C  C176  1  0.59980000  0.48740000  0.54900000  1
  C  C177  1  0.60700000  0.92730000  0.73150000  1
  C  C178  1  0.61200000  0.81740000  0.34130000  1
  C  C179  1  0.62810000  0.47830000  0.48200000  1
  C  C180  1  0.62950000  0.68040000  0.01990000  1
  C  C181  1  0.63680000  0.71290000  0.55400000  1
  C  C182  1  0.63950000  0.26830000  0.14570000  1
  C  C183  1  0.65880000  0.74890000  0.98210000  1
  C  C184  1  0.66790000  0.26150000  0.02750000  1
  C  C185  1  0.67700000  0.11720000  0.83290000  1
  C  C186  1  0.67700000  0.71490000  0.27320000  1
  C  C187  1  0.68410000  0.18920000  0.53220000  1
  C  C188  1  0.69380000  0.66080000  0.76210000  1
  C  C189  1  0.69560000  0.05590000  0.78940000  1
  C  C190  1  0.70490000  0.31200000  0.34250000  1
  C  C191  1  0.70900000  0.47650000  0.60220000  1
  C  C192  1  0.70980000  0.18220000  0.65030000  1
  C  C193  1  0.71720000  0.66910000  0.07360000  1
  C  C194  1  0.71790000  0.69730000  0.49970000  1
  C  C195  1  0.72260000  0.86830000  0.30930000  1
  C  C196  1  0.77740000  0.63170000  0.80930000  1
  C  C197  1  0.78210000  0.80270000  0.99970000  1
  C  C198  1  0.78280000  0.83090000  0.57360000  1
  C  C199  1  0.79020000  0.31780000  0.15030000  1
  C  C200  1  0.79100000  0.02350000  0.10220000  1
  C  C201  1  0.79510000  0.18800000  0.84250000  1
  C  C202  1  0.80440000  0.44410000  0.28940000  1
  C  C203  1  0.80620000  0.83920000  0.26210000  1
  C  C204  1  0.81590000  0.31080000  0.03220000  1
  C  C205  1  0.82300000  0.38280000  0.33290000  1
  C  C206  1  0.82300000  0.78510000  0.77320000  1
  C  C207  1  0.83210000  0.23850000  0.52750000  1
  C  C208  1  0.84120000  0.75110000  0.48210000  1
  C  C209  1  0.86050000  0.23170000  0.64570000  1
  C  C210  1  0.86320000  0.78710000  0.05400000  1
  C  C211  1  0.87050000  0.81960000  0.51990000  1
  C  C212  1  0.87190000  0.02170000  0.98200000  1
  C  C213  1  0.88800000  0.68260000  0.84130000  1
  C  C214  1  0.89300000  0.57270000  0.23150000  1
  C  C215  1  0.90020000  0.01260000  0.04900000  1
  C  C216  1  0.91140000  0.76010000  0.82130000  1
  C  C217  1  0.91540000  0.50810000  0.27920000  1
  C  C218  1  0.93060000  0.73460000  0.42270000  1
  C  C219  1  0.93820000  0.54640000  0.64060000  1
  C  C220  1  0.95270000  0.38780000  0.36760000  1
  C  C221  1  0.95480000  0.48600000  0.68480000  1
  C  C222  1  0.96850000  0.00910000  0.93240000  1
  C  C223  1  0.97260000  0.65390000  0.89670000  1
  N  N224  1  0.07450000  0.78140000  0.41980000  1
  N  N225  1  0.11850000  0.70270000  0.90310000  1
  N  N226  1  0.16800000  0.27770000  0.90863000  1
  N  N227  1  0.21350000  0.23660000  0.75600000  1
  N  N228  1  0.28650000  0.26340000  0.25600000  1
  N  N229  1  0.33200000  0.22230000  0.40863000  1
  N  N230  1  0.38150000  0.79730000  0.40310000  1
  N  N231  1  0.42550000  0.71860000  0.91980000  1
  N  N232  1  0.57450000  0.28140000  0.08020000  1
  N  N233  1  0.61850000  0.20270000  0.59690000  1
  N  N234  1  0.66800000  0.77770000  0.59137000  1
  N  N235  1  0.71350000  0.73660000  0.74400000  1
  N  N236  1  0.78650000  0.76340000  0.24400000  1
  N  N237  1  0.83200000  0.72230000  0.09137000  1
  N  N238  1  0.88150000  0.29730000  0.09690000  1
  N  N239  1  0.92550000  0.21860000  0.58020000  1
  O  O240  1  0.00797000  0.36577000  0.77085000  1
  O  O241  1  0.08469000  0.81639000  0.18502000  1
  O  O242  1  0.18340000  0.45410000  0.39830000  1
  O  O243  1  0.21890000  0.43380000  0.80210000  1
  O  O244  1  0.22620000  0.75430000  0.12500000  1
  O  O245  1  0.27380000  0.74570000  0.62500000  1
  O  O246  1  0.28110000  0.06620000  0.30210000  1
  O  O247  1  0.31660000  0.04590000  0.89830000  1
  O  O248  1  0.41531000  0.68361000  0.68502000  1
  O  O249  1  0.49203000  0.13423000  0.27085000  1
  O  O250  1  0.50797000  0.86577000  0.72915000  1
  O  O251  1  0.58469000  0.31639000  0.31498000  1
  O  O252  1  0.68340000  0.95410000  0.10170000  1
  O  O253  1  0.71890000  0.93380000  0.69790000  1
  O  O254  1  0.72620000  0.25430000  0.37500000  1
  O  O255  1  0.77380000  0.24570000  0.87500000  1
  O  O256  1  0.78110000  0.56620000  0.19790000  1
  O  O257  1  0.81660000  0.54590000  0.60170000  1
  O  O258  1  0.91531000  0.18361000  0.81498000  1
  O  O259  1  0.99203000  0.63423000  0.22915000  1
