# generated using pymatgen
data_Eu2CuH12C32(NO6)4
_symmetry_space_group_name_H-M   'P 1'
_cell_length_a   10.50000000
_cell_length_b   10.63500000
_cell_length_c   11.37300000
_cell_angle_alpha   82.98000000
_cell_angle_beta   74.42000000
_cell_angle_gamma   69.60000000
_symmetry_Int_Tables_number   1
_chemical_formula_structural   Eu2CuH12C32(NO6)4
_chemical_formula_sum   'Eu2 Cu1 H12 C32 N4 O24'
_cell_volume   1146.03019778
_cell_formula_units_Z   1
loop_
 _symmetry_equiv_pos_site_id
 _symmetry_equiv_pos_as_xyz
  1  'x, y, z'
loop_
 _atom_site_type_symbol
 _atom_site_label
 _atom_site_symmetry_multiplicity
 _atom_site_fract_x
 _atom_site_fract_y
 _atom_site_fract_z
 _atom_site_occupancy
  Eu  Eu0  1  0.41196000  0.40163000  0.37020000  1
  Eu  Eu1  1  0.58804000  0.59837000  0.62980000  1
  Cu  Cu2  1  0.00000000  0.50000000  0.50000000  1
  H  H3  1  0.00730000  0.83590000  0.64740000  1
  H  H4  1  0.08400000  0.67440000  0.80270000  1
  H  H5  1  0.10820000  0.33750000  0.84140000  1
  H  H6  1  0.17810000  0.76330000  0.33520000  1
  H  H7  1  0.31150000  0.52030000  0.05140000  1
  H  H8  1  0.34920000  0.98700000  0.46350000  1
  H  H9  1  0.65080000  0.01300000  0.53650000  1
  H  H10  1  0.68850000  0.47970000  0.94860000  1
  H  H11  1  0.82190000  0.23670000  0.66480000  1
  H  H12  1  0.89180000  0.66250000  0.15860000  1
  H  H13  1  0.91600000  0.32560000  0.19730000  1
  H  H14  1  0.99270000  0.16410000  0.35260000  1
  C  C15  1  0.02600000  0.35570000  0.90290000  1
  C  C16  1  0.03010000  0.32380000  0.02250000  1
  C  C17  1  0.06650000  0.08780000  0.36380000  1
  C  C18  1  0.07480000  0.96180000  0.33410000  1
  C  C19  1  0.08990000  0.65210000  0.88310000  1
  C  C20  1  0.10370000  0.58410000  0.12470000  1
  C  C21  1  0.10980000  0.54620000  0.25490000  1
  C  C22  1  0.16680000  0.23280000  0.43900000  1
  C  C23  1  0.17320000  0.09560000  0.41110000  1
  C  C24  1  0.17780000  0.84600000  0.35440000  1
  C  C25  1  0.21880000  0.59410000  0.91120000  1
  C  C26  1  0.22500000  0.55980000  0.03250000  1
  C  C27  1  0.27910000  0.98070000  0.43140000  1
  C  C28  1  0.28190000  0.85440000  0.40420000  1
  C  C29  1  0.35070000  0.57340000  0.81200000  1
  C  C30  1  0.39180000  0.73090000  0.43590000  1
  C  C31  1  0.60820000  0.26910000  0.56410000  1
  C  C32  1  0.64930000  0.42660000  0.18800000  1
  C  C33  1  0.71810000  0.14560000  0.59580000  1
  C  C34  1  0.72090000  0.01930000  0.56860000  1
  C  C35  1  0.77500000  0.44020000  0.96750000  1
  C  C36  1  0.78120000  0.40590000  0.08880000  1
  C  C37  1  0.82220000  0.15400000  0.64560000  1
  C  C38  1  0.82680000  0.90440000  0.58890000  1
  C  C39  1  0.83320000  0.76720000  0.56100000  1
  C  C40  1  0.89020000  0.45380000  0.74510000  1
  C  C41  1  0.89630000  0.41590000  0.87530000  1
  C  C42  1  0.91010000  0.34790000  0.11690000  1
  C  C43  1  0.92520000  0.03820000  0.66590000  1
  C  C44  1  0.93350000  0.91220000  0.63620000  1
  C  C45  1  0.96990000  0.67620000  0.97750000  1
  C  C46  1  0.97400000  0.64430000  0.09710000  1
  N  N47  1  0.03830000  0.04360000  0.71690000  1
  N  N48  1  0.16900000  0.26200000  0.05070000  1
  N  N49  1  0.83100000  0.73800000  0.94930000  1
  N  N50  1  0.96170000  0.95640000  0.28310000  1
  O  O51  1  0.00480000  0.44070000  0.66870000  1
  O  O52  1  0.04600000  0.31930000  0.45460000  1
  O  O53  1  0.04740000  0.15160000  0.72580000  1
  O  O54  1  0.12220000  0.93950000  0.74230000  1
  O  O55  1  0.17440000  0.25080000  0.15630000  1
  O  O56  1  0.22540000  0.50680000  0.28090000  1
  O  O57  1  0.27120000  0.23290000  0.96590000  1
  O  O58  1  0.27480000  0.25160000  0.44570000  1
  O  O59  1  0.34100000  0.61150000  0.70350000  1
  O  O60  1  0.39700000  0.62000000  0.40580000  1
  O  O61  1  0.46730000  0.52370000  0.83690000  1
  O  O62  1  0.47270000  0.74570000  0.49240000  1
  O  O63  1  0.52730000  0.25430000  0.50760000  1
  O  O64  1  0.53270000  0.47630000  0.16310000  1
  O  O65  1  0.60300000  0.38000000  0.59420000  1
  O  O66  1  0.65900000  0.38850000  0.29650000  1
  O  O67  1  0.72520000  0.74840000  0.55430000  1
  O  O68  1  0.72880000  0.76710000  0.03410000  1
  O  O69  1  0.77460000  0.49320000  0.71910000  1
  O  O70  1  0.82560000  0.74920000  0.84370000  1
  O  O71  1  0.87780000  0.06050000  0.25770000  1
  O  O72  1  0.95260000  0.84840000  0.27420000  1
  O  O73  1  0.95400000  0.68070000  0.54540000  1
  O  O74  1  0.99520000  0.55930000  0.33130000  1
