# generated using pymatgen
data_Co3H24C38(N3O2)4
_symmetry_space_group_name_H-M   'P 1'
_cell_length_a   11.45270000
_cell_length_b   11.62390000
_cell_length_c   11.77540000
_cell_angle_alpha   64.82500000
_cell_angle_beta   81.40600000
_cell_angle_gamma   72.31600000
_symmetry_Int_Tables_number   1
_chemical_formula_structural   Co3H24C38(N3O2)4
_chemical_formula_sum   'Co3 H24 C38 N12 O8'
_cell_volume   1351.28834563
_cell_formula_units_Z   1
loop_
 _symmetry_equiv_pos_site_id
 _symmetry_equiv_pos_as_xyz
  1  'x, y, z'
loop_
 _atom_site_type_symbol
 _atom_site_label
 _atom_site_symmetry_multiplicity
 _atom_site_fract_x
 _atom_site_fract_y
 _atom_site_fract_z
 _atom_site_occupancy
  Co  Co0  1  0.00000000  0.00000000  0.00000000  1
  Co  Co1  1  0.00000000  0.00000000  0.50000000  1
  Co  Co2  1  0.00000000  0.50000000  0.50000000  1
  H  H3  1  0.15890000  0.18060000  0.98670000  1
  H  H4  1  0.16840000  0.72470000  0.62900000  1
  H  H5  1  0.20420000  0.37340000  0.70470000  1
  H  H6  1  0.22120000  0.00080000  0.30880000  1
  H  H7  1  0.23310000  0.52710000  0.34020000  1
  H  H8  1  0.26260000  0.81260000  0.03880000  1
  H  H9  1  0.35090000  0.18730000  0.98200000  1
  H  H10  1  0.36160000  0.59810000  0.62550000  1
  H  H11  1  0.40940000  0.27770000  0.71920000  1
  H  H12  1  0.41760000  0.87940000  0.29650000  1
  H  H13  1  0.43840000  0.43510000  0.34590000  1
  H  H14  1  0.46140000  0.80860000  0.03020000  1
  H  H15  1  0.53860000  0.19140000  0.96980000  1
  H  H16  1  0.56160000  0.56490000  0.65410000  1
  H  H17  1  0.58240000  0.12060000  0.70350000  1
  H  H18  1  0.59060000  0.72230000  0.28080000  1
  H  H19  1  0.63840000  0.40190000  0.37450000  1
  H  H20  1  0.64910000  0.81270000  0.01800000  1
  H  H21  1  0.73740000  0.18740000  0.96120000  1
  H  H22  1  0.76690000  0.47290000  0.65980000  1
  H  H23  1  0.77880000  0.99920000  0.69120000  1
  H  H24  1  0.79580000  0.62660000  0.29530000  1
  H  H25  1  0.83160000  0.27530000  0.37100000  1
  H  H26  1  0.84110000  0.81940000  0.01330000  1
  C  C27  1  0.01920000  0.11070000  0.73020000  1
  C  C28  1  0.02090000  0.22020000  0.62030000  1
  C  C29  1  0.03860000  0.96740000  0.76770000  1
  C  C30  1  0.04890000  0.24790000  0.48580000  1
  C  C31  1  0.21970000  0.75770000  0.56130000  1
  C  C32  1  0.22120000  0.10460000  0.99500000  1
  C  C33  1  0.24990000  0.91920000  0.37420000  1
  C  C34  1  0.25160000  0.38450000  0.63130000  1
  C  C35  1  0.26910000  0.47410000  0.41790000  1
  C  C36  1  0.28150000  0.89010000  0.02460000  1
  C  C37  1  0.33600000  0.10930000  0.99170000  1
  C  C38  1  0.33610000  0.68120000  0.56100000  1
  C  C39  1  0.36900000  0.84720000  0.36710000  1
  C  C40  1  0.37510000  0.32750000  0.64030000  1
  C  C41  1  0.39300000  0.41970000  0.42080000  1
  C  C42  1  0.40140000  0.88660000  0.02070000  1
  C  C43  1  0.41630000  0.72870000  0.46310000  1
  C  C44  1  0.43580000  0.99890000  0.00240000  1
  C  C45  1  0.45110000  0.34290000  0.53240000  1
  C  C46  1  0.54890000  0.65710000  0.46760000  1
  C  C47  1  0.56420000  0.00110000  0.99760000  1
  C  C48  1  0.58370000  0.27130000  0.53690000  1
  C  C49  1  0.59860000  0.11340000  0.97930000  1
  C  C50  1  0.60700000  0.58030000  0.57920000  1
  C  C51  1  0.62490000  0.67250000  0.35970000  1
  C  C52  1  0.63100000  0.15280000  0.63290000  1
  C  C53  1  0.66390000  0.31880000  0.43900000  1
  C  C54  1  0.66400000  0.89070000  0.00830000  1
  C  C55  1  0.71850000  0.10990000  0.97540000  1
  C  C56  1  0.73090000  0.52590000  0.58210000  1
  C  C57  1  0.74840000  0.61550000  0.36870000  1
  C  C58  1  0.75010000  0.08080000  0.62580000  1
  C  C59  1  0.77880000  0.89540000  0.00500000  1
  C  C60  1  0.78030000  0.24230000  0.43870000  1
  C  C61  1  0.95110000  0.75210000  0.51420000  1
  C  C62  1  0.96140000  0.03260000  0.23230000  1
  C  C63  1  0.97910000  0.77980000  0.37970000  1
  C  C64  1  0.98080000  0.88930000  0.26980000  1
  N  N65  1  0.00440000  0.67510000  0.34770000  1
  N  N66  1  0.01000000  0.84610000  0.17560000  1
  N  N67  1  0.02410000  0.71580000  0.22510000  1
  N  N68  1  0.17330000  0.87650000  0.47180000  1
  N  N69  1  0.18910000  0.99710000  0.00950000  1
  N  N70  1  0.19650000  0.45530000  0.52120000  1
  N  N71  1  0.80350000  0.54470000  0.47880000  1
  N  N72  1  0.81090000  0.00290000  0.99050000  1
  N  N73  1  0.82670000  0.12350000  0.52820000  1
  N  N74  1  0.97590000  0.28420000  0.77490000  1
  N  N75  1  0.99000000  0.15390000  0.82440000  1
  N  N76  1  0.99560000  0.32490000  0.65230000  1
  O  O77  1  0.04460000  0.36560000  0.41400000  1
  O  O78  1  0.04620000  0.92210000  0.68710000  1
  O  O79  1  0.04900000  0.89610000  0.88340000  1
  O  O80  1  0.07940000  0.15490000  0.44910000  1
  O  O81  1  0.92060000  0.84510000  0.55090000  1
  O  O82  1  0.95100000  0.10390000  0.11660000  1
  O  O83  1  0.95380000  0.07790000  0.31290000  1
  O  O84  1  0.95540000  0.63440000  0.58600000  1
