# generated using pymatgen
data_Mn3H57C51N8O9
_symmetry_space_group_name_H-M   'P 1'
_cell_length_a   17.35100000
_cell_length_b   30.03740000
_cell_length_c   30.03740575
_cell_angle_alpha   85.21489111
_cell_angle_beta   73.21246362
_cell_angle_gamma   73.21250000
_symmetry_Int_Tables_number   1
_chemical_formula_structural   Mn3H57C51N8O9
_chemical_formula_sum   'Mn24 H456 C408 N64 O72'
_cell_volume   14348.95203927
_cell_formula_units_Z   8
loop_
 _symmetry_equiv_pos_site_id
 _symmetry_equiv_pos_as_xyz
  1  'x, y, z'
loop_
 _atom_site_type_symbol
 _atom_site_label
 _atom_site_symmetry_multiplicity
 _atom_site_fract_x
 _atom_site_fract_y
 _atom_site_fract_z
 _atom_site_occupancy
  Mn  Mn0  1  0.13920000  0.91591000  0.85634000  1
  Mn  Mn1  1  0.99553000  0.64366000  0.91592000  1
  Mn  Mn2  1  0.27501000  0.96392000  0.61898000  1
  Mn  Mn3  1  0.44489000  0.14366000  0.41592000  1
  Mn  Mn4  1  0.89399000  0.88102000  0.96392000  1
  Mn  Mn5  1  0.79487000  0.42207000  0.00101000  1
  Mn  Mn6  1  0.71694000  0.00101000  0.07793000  1
  Mn  Mn7  1  0.20412000  0.50101000  0.57793000  1
  Mn  Mn8  1  0.85791000  0.53608000  0.88102000  1
  Mn  Mn9  1  0.26107000  0.38102000  0.46392000  1
  Mn  Mn10  1  0.21795000  0.07793000  0.49899000  1
  Mn  Mn11  1  0.91144000  0.58409000  0.64366000  1
  Mn  Mn12  1  0.08856000  0.41591000  0.35634000  1
  Mn  Mn13  1  0.78205000  0.92207000  0.50101000  1
  Mn  Mn14  1  0.73893000  0.61898000  0.53608000  1
  Mn  Mn15  1  0.14209000  0.46392000  0.11898000  1
  Mn  Mn16  1  0.79588000  0.49899000  0.42207000  1
  Mn  Mn17  1  0.28306000  0.99899000  0.92207000  1
  Mn  Mn18  1  0.20513000  0.57793000  0.99899000  1
  Mn  Mn19  1  0.10601000  0.11898000  0.03608000  1
  Mn  Mn20  1  0.55511000  0.85634000  0.58408000  1
  Mn  Mn21  1  0.72499000  0.03608000  0.38102000  1
  Mn  Mn22  1  0.00447000  0.35634000  0.08408000  1
  Mn  Mn23  1  0.86080000  0.08409000  0.14366000  1
  H  H24  1  0.43040000  0.66090000  0.56810000  1
  H  H25  1  0.76890000  0.57140000  0.22940000  1
  H  H26  1  0.17560000  0.56210000  0.81810000  1
  H  H27  1  0.88280000  0.94230000  0.10730000  1
  H  H28  1  0.19500000  0.22600000  0.79220000  1
  H  H29  1  0.29250000  0.42640000  0.69160000  1
  H  H30  1  0.72070000  0.41180000  0.26240000  1
  H  H31  1  0.10550000  0.36090000  0.87690000  1
  H  H32  1  0.60490000  0.33570000  0.37670000  1
  H  H33  1  0.96260000  0.24750000  0.01730000  1
  H  H34  1  0.81900000  0.88650000  0.15970000  1
  H  H35  1  0.32430000  0.09500000  0.65320000  1
  H  H36  1  0.05200000  0.42500000  0.92540000  1
  H  H37  1  0.08730000  0.53450000  0.88990000  1
  H  H38  1  0.40240000  0.07500000  0.57460000  1
  H  H39  1  0.07530000  0.75460000  0.90120000  1
  H  H40  1  0.75580000  0.82780000  0.21720000  1
  H  H41  1  0.38610000  0.83480000  0.58640000  1
  H  H42  1  0.55410000  0.48680000  0.41380000  1
  H  H43  1  0.34330000  0.13910000  0.62310000  1
  H  H44  1  0.71010000  0.01730000  0.25250000  1
  H  H45  1  0.87050000  0.50970000  0.08310000  1
  H  H46  1  0.81630000  0.30570000  0.13730000  1
  H  H47  1  0.83280000  0.85420000  0.11680000  1
  H  H48  1  0.02300000  0.07460000  0.92500000  1
  H  H49  1  0.78570000  0.51560000  0.15900000  1
  H  H50  1  0.19110000  0.90510000  0.74550000  1
  H  H51  1  0.08700000  0.20890000  0.84830000  1
  H  H52  1  0.76350000  0.80380000  0.16980000  1
  H  H53  1  0.26290000  0.30380000  0.66980000  1
  H  H54  1  0.99010000  0.39270000  0.94230000  1
  H  H55  1  0.62800000  0.97460000  0.30180000  1
  H  H56  1  0.69760000  0.48340000  0.23160000  1
  H  H57  1  0.45550000  0.93320000  0.47260000  1
  H  H58  1  0.02250000  0.15320000  0.90500000  1
  H  H59  1  0.67010000  0.09880000  0.25460000  1
  H  H60  1  0.77330000  0.42490000  0.15090000  1
  H  H61  1  0.70340000  0.38980000  0.22080000  1
  H  H62  1  0.44230000  0.48930000  0.48010000  1
  H  H63  1  0.21320000  0.27400000  0.70780000  1
  H  H64  1  0.07250000  0.40500000  0.84680000  1
  H  H65  1  0.19920000  0.32780000  0.71720000  1
  H  H66  1  0.32540000  0.77570000  0.58930000  1
  H  H67  1  0.25580000  0.63260000  0.65880000  1
  H  H68  1  0.09090000  0.30490000  0.82350000  1
  H  H69  1  0.56470000  0.44450000  0.34890000  1
  H  H70  1  0.20410000  0.15170000  0.70890000  1
  H  H71  1  0.87820000  0.11010000  0.03450000  1
  H  H72  1  0.12710000  0.69230000  0.78450000  1
  H  H73  1  0.10420000  0.17650000  0.80490000  1
  H  H74  1  0.92980000  0.19820000  0.97460000  1
  H  H75  1  0.42400000  0.85880000  0.47420000  1
  H  H76  1  0.09560000  0.47460000  0.80180000  1
  H  H77  1  0.21930000  0.19510000  0.67650000  1
  H  H78  1  0.03360000  0.12310000  0.86090000  1
  H  H79  1  0.27600000  0.70920000  0.61740000  1
  H  H80  1  0.86130000  0.56680000  0.02740000  1
  H  H81  1  0.62700000  0.42200000  0.25880000  1
  H  H82  1  0.32510000  0.10730000  0.55770000  1
  H  H83  1  0.46330000  0.99030000  0.41690000  1
  H  H84  1  0.69400000  0.29030000  0.18470000  1
  H  H85  1  0.48830000  0.03450000  0.38990000  1
  H  H86  1  0.31120000  0.70760000  0.56180000  1
  H  H87  1  0.68060000  0.21550000  0.19230000  1
  H  H88  1  0.21930000  0.56630000  0.65350000  1
  H  H89  1  0.36450000  0.95380000  0.50760000  1
  H  H90  1  0.88020000  0.08310000  0.99030000  1
  H  H91  1  0.97870000  0.34030000  0.88650000  1
  H  H92  1  0.73440000  0.50260000  0.12800000  1
  H  H93  1  0.92810000  0.02740000  0.93320000  1
  H  H94  1  0.46010000  0.31540000  0.39920000  1
  H  H95  1  0.06470000  0.34830000  0.79110000  1
  H  H96  1  0.33070000  0.63750000  0.51990000  1
  H  H97  1  0.64580000  0.47180000  0.20000000  1
  H  H98  1  0.93660000  0.75450000  0.90510000  1
  H  H99  1  0.56970000  0.92860000  0.27060000  1
  H  H100  1  0.33130000  0.88210000  0.50590000  1
  H  H101  1  0.18700000  0.11680000  0.64580000  1
  H  H102  1  0.12130000  0.68470000  0.70970000  1
  H  H103  1  0.87210000  0.99240000  0.95380000  1
  H  H104  1  0.47370000  0.40140000  0.35200000  1
  H  H105  1  0.14070000  0.89920000  0.68460000  1
  H  H106  1  0.76230000  0.18190000  0.06210000  1
  H  H107  1  0.20550000  0.15970000  0.61350000  1
  H  H108  1  0.82590000  0.54620000  0.99240000  1
  H  H109  1  0.62200000  0.13730000  0.19430000  1
  H  H110  1  0.40140000  0.90450000  0.41170000  1
  H  H111  1  0.29510000  0.57000000  0.51800000  1
  H  H112  1  0.19620000  0.35420000  0.61680000  1
  H  H113  1  0.40380000  0.25450000  0.40510000  1
  H  H114  1  0.97250000  0.91360000  0.83480000  1
  H  H115  1  0.71760000  0.59550000  0.08830000  1
  H  H116  1  0.07900000  0.20780000  0.72600000  1
  H  H117  1  0.94960000  0.38320000  0.85420000  1
  H  H118  1  0.46030000  0.98440000  0.34100000  1
  H  H119  1  0.97300000  0.28280000  0.82780000  1
  H  H120  1  0.14420000  0.29110000  0.65170000  1
  H  H121  1  0.13480000  0.38650000  0.65970000  1
  H  H122  1  0.01280000  0.29220000  0.77400000  1
  H  H123  1  0.80130000  0.15900000  0.98440000  1
  H  H124  1  0.75700000  0.64120000  0.02580000  1
  H  H125  1  0.58950000  0.92640000  0.19160000  1
  H  H126  1  0.71440000  0.34650000  0.06630000  1
  H  H127  1  0.08560000  0.32350000  0.69510000  1
  H  H128  1  0.69820000  0.15090000  0.07510000  1
  H  H129  1  0.17430000  0.85200000  0.59860000  1
  H  H130  1  0.02010000  0.51730000  0.75250000  1
  H  H131  1  0.84030000  0.22940000  0.92860000  1
  H  H132  1  0.06730000  0.16980000  0.69620000  1
  H  H133  1  0.44420000  0.06210000  0.31810000  1
  H  H134  1  0.31760000  0.93810000  0.44270000  1
  H  H135  1  0.34250000  0.85190000  0.41730000  1
  H  H136  1  0.36630000  0.62770000  0.39090000  1
  H  H137  1  0.89820000  0.02580000  0.85880000  1
  H  H138  1  0.08360000  0.21720000  0.67220000  1
  H  H139  1  0.69840000  0.56190000  0.05730000  1
  H  H140  1  0.31270000  0.61420000  0.44040000  1
  H  H141  1  0.61160000  0.34120000  0.13260000  1
  H  H142  1  0.35750000  0.54930000  0.38390000  1
  H  H143  1  0.04640000  0.63730000  0.69430000  1
  H  H144  1  0.93330000  0.33020000  0.80380000  1
  H  H145  1  0.36500000  0.99740000  0.37200000  1
  H  H146  1  0.73700000  0.12800000  0.99740000  1
  H  H147  1  0.58640000  0.59410000  0.14730000  1
  H  H148  1  0.97650000  0.59880000  0.75460000  1
  H  H149  1  0.82530000  0.81540000  0.89920000  1
  H  H150  1  0.51480000  0.38260000  0.20920000  1
  H  H151  1  0.80730000  0.66520000  0.91360000  1
  H  H152  1  0.63250000  0.26240000  0.08820000  1
  H  H153  1  0.83720000  0.99410000  0.88210000  1
  H  H154  1  0.81310000  0.08830000  0.90450000  1
  H  H155  1  0.56090000  0.06630000  0.15350000  1
  H  H156  1  0.71930000  0.61790000  0.99410000  1
  H  H157  1  0.22740000  0.25250000  0.48270000  1
  H  H158  1  0.25860000  0.88390000  0.45070000  1
  H  H159  1  0.78110000  0.30840000  0.92640000  1
  H  H160  1  0.63490000  0.48200000  0.07000000  1
  H  H161  1  0.59320000  0.22080000  0.11020000  1
  H  H162  1  0.76030000  0.05730000  0.93810000  1
  H  H163  1  0.34910000  0.07510000  0.34910000  1
  H  H164  1  0.68100000  0.23160000  0.01660000  1
  H  H165  1  0.61170000  0.64810000  0.08270000  1
  H  H166  1  0.48430000  0.18470000  0.20970000  1
  H  H167  1  0.11420000  0.75880000  0.57800000  1
  H  H168  1  0.91470000  0.91070000  0.77570000  1
  H  H169  1  0.48120000  0.43820000  0.20760000  1
  H  H170  1  0.57310000  0.55960000  0.11420000  1
  H  H171  1  0.07580000  0.72080000  0.61020000  1
  H  H172  1  0.01840000  0.87670000  0.66430000  1
  H  H173  1  0.15420000  0.70000000  0.52820000  1
  H  H174  1  0.24430000  0.55730000  0.43810000  1
  H  H175  1  0.41260000  0.01660000  0.26840000  1
  H  H176  1  0.39610000  0.19230000  0.28450000  1
  H  H177  1  0.32780000  0.90590000  0.35270000  1
  H  H178  1  0.08070000  0.34680000  0.59500000  1
  H  H179  1  0.06760000  0.44230000  0.60730000  1
  H  H180  1  0.39890000  0.41070000  0.27570000  1
  H  H181  1  0.26630000  0.64730000  0.40590000  1
  H  H182  1  0.26890000  0.25460000  0.40120000  1
  H  H183  1  0.53180000  0.48010000  0.13750000  1
  H  H184  1  0.28660000  0.49410000  0.38210000  1
  H  H185  1  0.99850000  0.93190000  0.66090000  1
  H  H186  1  0.30560000  0.58270000  0.35190000  1
  H  H187  1  0.01760000  0.37690000  0.63910000  1
  H  H188  1  0.07580000  0.65090000  0.57510000  1
  H  H189  1  0.61760000  0.20000000  0.02820000  1
  H  H190  1  0.59320000  0.61610000  0.04930000  1
  H  H191  1  0.08640000  0.84890000  0.55550000  1
  H  H192  1  0.18170000  0.49240000  0.45380000  1
  H  H193  1  0.13760000  0.62800000  0.49740000  1
  H  H194  1  0.61690000  0.07000000  0.01800000  1
  H  H195  1  0.50600000  0.60910000  0.12770000  1
  H  H196  1  0.24690000  0.94040000  0.38580000  1
  H  H197  1  0.39490000  0.08820000  0.23760000  1
  H  H198  1  0.10260000  0.30180000  0.52540000  1
  H  H199  1  0.54900000  0.25880000  0.07800000  1
  H  H200  1  0.77290000  0.90140000  0.85200000  1
  H  H201  1  0.25930000  0.19430000  0.36270000  1
  H  H202  1  0.31760000  0.02820000  0.30000000  1
  H  H203  1  0.18690000  0.01800000  0.43000000  1
  H  H204  1  0.24280000  0.89090000  0.37230000  1
  H  H205  1  0.27910000  0.41360000  0.33480000  1
  H  H206  1  0.75980000  0.08270000  0.85190000  1
  H  H207  1  0.45280000  0.13260000  0.15880000  1
  H  H208  1  0.01690000  0.76240000  0.58820000  1
  H  H209  1  0.44060000  0.37670000  0.16430000  1
  H  H210  1  0.91160000  0.71550000  0.69230000  1
  H  H211  1  0.89340000  0.88260000  0.70920000  1
  H  H212  1  0.69040000  0.72430000  0.91070000  1
  H  H213  1  0.19410000  0.58830000  0.40450000  1
  H  H214  1  0.02260000  0.42540000  0.57500000  1
  H  H215  1  0.84170000  0.59490000  0.75450000  1
  H  H216  1  0.31400000  0.11020000  0.27920000  1
  H  H217  1  0.70930000  0.04930000  0.88390000  1
  H  H218  1  0.65940000  0.83910000  0.93190000  1
  H  H219  1  0.01590000  0.19160000  0.57360000  1
  H  H220  1  0.07760000  0.98010000  0.51070000  1
  H  H221  1  0.07080000  0.73160000  0.51660000  1
  H  H222  1  0.68050000  0.14730000  0.90590000  1
  H  H223  1  0.87300000  0.93820000  0.70760000  1
  H  H224  1  0.21720000  0.52580000  0.35880000  1
  H  H225  1  0.63270000  0.11420000  0.94040000  1
  H  H226  1  0.99830000  0.27060000  0.57140000  1
  H  H227  1  0.40870000  0.43190000  0.16090000  1
  H  H228  1  0.58830000  0.98930000  0.98010000  1
  H  H229  1  0.50920000  0.34890000  0.05550000  1
  H  H230  1  0.12720000  0.15350000  0.43370000  1
  H  H231  1  0.68270000  0.83570000  0.87670000  1
  H  H232  1  0.56840000  0.51990000  0.98930000  1
  H  H233  1  0.99370000  0.68190000  0.56210000  1
  H  H234  1  0.54090000  0.41380000  0.01320000  1
  H  H235  1  0.30780000  0.07800000  0.24120000  1
  H  H236  1  0.91460000  0.84120000  0.63260000  1
  H  H237  1  0.03210000  0.91380000  0.51320000  1
  H  H238  1  0.11130000  0.52740000  0.43320000  1
  H  H239  1  0.45470000  0.01320000  0.08620000  1
  H  H240  1  0.72450000  0.60080000  0.81540000  1
  H  H241  1  0.05530000  0.65900000  0.48440000  1
  H  H242  1  0.04640000  0.58310000  0.49030000  1
  H  H243  1  0.51190000  0.13750000  0.01990000  1
  H  H244  1  0.62490000  0.64800000  0.90140000  1
  H  H245  1  0.58060000  0.79240000  0.93820000  1
  H  H246  1  0.83100000  0.79030000  0.68470000  1
  H  H247  1  0.39740000  0.20920000  0.11740000  1
  H  H248  1  0.14940000  0.01990000  0.36250000  1
  H  H249  1  0.97720000  0.61010000  0.53450000  1
  H  H250  1  0.35810000  0.05550000  0.15110000  1
  H  H251  1  0.61510000  0.12770000  0.89090000  1
  H  H252  1  0.38490000  0.87230000  0.10910000  1
  H  H253  1  0.64190000  0.94450000  0.84890000  1
  H  H254  1  0.02280000  0.38990000  0.46550000  1
  H  H255  1  0.85060000  0.98010000  0.63750000  1
  H  H256  1  0.60260000  0.79080000  0.88260000  1
  H  H257  1  0.16900000  0.20970000  0.31530000  1
  H  H258  1  0.41940000  0.20760000  0.06180000  1
  H  H259  1  0.37510000  0.35200000  0.09860000  1
  H  H260  1  0.48810000  0.86250000  0.98010000  1
  H  H261  1  0.95360000  0.41690000  0.50970000  1
  H  H262  1  0.94470000  0.34100000  0.51560000  1
  H  H263  1  0.27550000  0.39920000  0.18460000  1
  H  H264  1  0.54530000  0.98680000  0.91380000  1
  H  H265  1  0.88870000  0.47260000  0.56680000  1
  H  H266  1  0.96790000  0.08620000  0.48680000  1
  H  H267  1  0.08540000  0.15880000  0.36740000  1
  H  H268  1  0.69220000  0.92200000  0.75880000  1
  H  H269  1  0.45910000  0.58620000  0.98680000  1
  H  H270  1  0.00630000  0.31810000  0.43790000  1
  H  H271  1  0.43160000  0.48010000  0.01070000  1
  H  H272  1  0.31730000  0.16430000  0.12330000  1
  H  H273  1  0.87280000  0.84650000  0.56630000  1
  H  H274  1  0.49080000  0.65110000  0.94450000  1
  H  H275  1  0.41170000  0.01070000  0.01990000  1
  H  H276  1  0.59130000  0.56810000  0.83910000  1
  H  H277  1  0.00170000  0.72940000  0.42860000  1
  H  H278  1  0.36730000  0.88580000  0.05960000  1
  H  H279  1  0.78280000  0.47420000  0.64120000  1
  H  H280  1  0.12700000  0.06180000  0.29240000  1
  H  H281  1  0.31950000  0.85270000  0.09410000  1
  H  H282  1  0.92920000  0.26840000  0.48340000  1
  H  H283  1  0.92240000  0.01990000  0.48930000  1
  H  H284  1  0.98410000  0.80840000  0.42640000  1
  H  H285  1  0.34060000  0.16090000  0.06810000  1
  H  H286  1  0.29070000  0.95070000  0.11610000  1
  H  H287  1  0.68600000  0.88980000  0.72080000  1
  H  H288  1  0.15830000  0.40510000  0.24550000  1
  H  H289  1  0.97740000  0.57460000  0.42500000  1
  H  H290  1  0.80590000  0.41170000  0.59550000  1
  H  H291  1  0.30960000  0.27570000  0.08930000  1
  H  H292  1  0.10660000  0.11740000  0.29080000  1
  H  H293  1  0.08840000  0.28450000  0.30770000  1
  H  H294  1  0.55940000  0.62330000  0.83570000  1
  H  H295  1  0.98310000  0.23760000  0.41180000  1
  H  H296  1  0.54720000  0.86740000  0.84120000  1
  H  H297  1  0.24020000  0.91730000  0.14810000  1
  H  H298  1  0.72090000  0.58640000  0.66520000  1
  H  H299  1  0.75720000  0.10910000  0.62770000  1
  H  H300  1  0.81310000  0.98200000  0.57000000  1
  H  H301  1  0.68240000  0.97180000  0.70000000  1
  H  H302  1  0.74070000  0.80570000  0.63730000  1
  H  H303  1  0.22710000  0.09860000  0.14800000  1
  H  H304  1  0.45100000  0.74120000  0.92200000  1
  H  H305  1  0.89740000  0.69820000  0.47460000  1
  H  H306  1  0.60510000  0.91180000  0.76240000  1
  H  H307  1  0.75310000  0.05960000  0.61420000  1
  H  H308  1  0.49400000  0.39090000  0.87230000  1
  H  H309  1  0.38310000  0.93000000  0.98200000  1
  H  H310  1  0.86240000  0.37200000  0.50260000  1
  H  H311  1  0.81830000  0.50760000  0.54620000  1
  H  H312  1  0.91360000  0.15110000  0.44450000  1
  H  H313  1  0.40680000  0.38390000  0.95070000  1
  H  H314  1  0.38240000  0.80000000  0.97180000  1
  H  H315  1  0.92420000  0.34910000  0.42490000  1
  H  H316  1  0.98240000  0.62310000  0.36090000  1
  H  H317  1  0.69440000  0.41730000  0.64810000  1
  H  H318  1  0.00150000  0.06810000  0.33910000  1
  H  H319  1  0.71340000  0.50590000  0.61790000  1
  H  H320  1  0.46820000  0.51990000  0.86250000  1
  H  H321  1  0.73110000  0.74540000  0.59880000  1
  H  H322  1  0.73370000  0.35270000  0.59410000  1
  H  H323  1  0.60110000  0.58930000  0.72430000  1
  H  H324  1  0.93240000  0.55770000  0.39270000  1
  H  H325  1  0.91930000  0.65320000  0.40500000  1
  H  H326  1  0.67220000  0.09410000  0.64730000  1
  H  H327  1  0.60390000  0.80770000  0.71550000  1
  H  H328  1  0.58740000  0.98340000  0.73160000  1
  H  H329  1  0.75570000  0.44270000  0.56190000  1
  H  H330  1  0.84580000  0.30000000  0.47180000  1
  H  H331  1  0.98160000  0.12330000  0.33570000  1
  H  H332  1  0.92420000  0.27920000  0.38980000  1
  H  H333  1  0.42690000  0.44040000  0.88580000  1
  H  H334  1  0.51880000  0.56180000  0.79240000  1
  H  H335  1  0.08530000  0.08930000  0.22430000  1
  H  H336  1  0.88580000  0.24120000  0.42200000  1
  H  H337  1  0.51570000  0.81530000  0.79030000  1
  H  H338  1  0.38830000  0.35190000  0.91730000  1
  H  H339  1  0.31900000  0.76840000  0.98340000  1
  H  H340  1  0.65090000  0.92490000  0.65090000  1
  H  H341  1  0.23970000  0.94270000  0.06190000  1
  H  H342  1  0.40680000  0.77920000  0.88980000  1
  H  H343  1  0.36510000  0.51800000  0.93000000  1
  H  H344  1  0.21890000  0.69160000  0.07360000  1
  H  H345  1  0.74140000  0.11610000  0.54930000  1
  H  H346  1  0.77260000  0.74750000  0.51730000  1
  H  H347  1  0.28070000  0.38210000  0.00590000  1
  H  H348  1  0.43910000  0.93370000  0.84650000  1
  H  H349  1  0.18690000  0.91170000  0.09550000  1
  H  H350  1  0.16280000  0.00590000  0.11790000  1
  H  H351  1  0.36750000  0.73760000  0.91180000  1
  H  H352  1  0.19270000  0.33480000  0.08640000  1
  H  H353  1  0.48520000  0.61740000  0.79080000  1
  H  H354  1  0.17470000  0.18460000  0.10080000  1
  H  H355  1  0.02350000  0.40120000  0.24540000  1
  H  H356  1  0.41360000  0.40590000  0.85270000  1
  H  H357  1  0.26300000  0.87200000  0.00260000  1
  H  H358  1  0.63500000  0.00260000  0.62800000  1
  H  H359  1  0.06670000  0.66980000  0.19620000  1
  H  H360  1  0.95360000  0.36270000  0.30570000  1
  H  H361  1  0.64250000  0.45070000  0.61610000  1
  H  H362  1  0.38840000  0.65880000  0.86740000  1
  H  H363  1  0.68730000  0.38580000  0.55960000  1
  H  H364  1  0.30160000  0.43810000  0.94270000  1
  H  H365  1  0.91640000  0.78280000  0.32780000  1
  H  H366  1  0.10180000  0.97420000  0.14120000  1
  H  H367  1  0.63370000  0.37230000  0.60910000  1
  H  H368  1  0.65750000  0.14810000  0.58270000  1
  H  H369  1  0.68240000  0.06190000  0.55730000  1
  H  H370  1  0.55580000  0.93790000  0.68190000  1
  H  H371  1  0.93270000  0.83020000  0.30380000  1
  H  H372  1  0.15970000  0.77060000  0.07140000  1
  H  H373  1  0.97990000  0.48270000  0.24750000  1
  H  H374  1  0.82570000  0.14800000  0.40140000  1
  H  H375  1  0.30180000  0.84910000  0.92490000  1
  H  H376  1  0.91440000  0.67650000  0.30490000  1
  H  H377  1  0.28560000  0.65350000  0.93370000  1
  H  H378  1  0.41050000  0.07360000  0.80840000  1
  H  H379  1  0.24300000  0.35880000  0.97420000  1
  H  H380  1  0.19870000  0.84100000  0.01560000  1
  H  H381  1  0.98720000  0.70780000  0.22600000  1
  H  H382  1  0.86520000  0.61350000  0.34030000  1
  H  H383  1  0.85580000  0.70890000  0.34830000  1
  H  H384  1  0.02700000  0.71720000  0.17220000  1
  H  H385  1  0.53970000  0.01560000  0.65900000  1
  H  H386  1  0.05040000  0.61680000  0.14580000  1
  H  H387  1  0.92100000  0.79220000  0.27400000  1
  H  H388  1  0.28240000  0.40450000  0.91170000  1
  H  H389  1  0.02750000  0.08640000  0.16520000  1
  H  H390  1  0.59620000  0.74550000  0.59490000  1
  H  H391  1  0.80380000  0.64580000  0.38320000  1
  H  H392  1  0.70490000  0.43000000  0.48200000  1
  H  H393  1  0.59860000  0.09550000  0.58830000  1
  H  H394  1  0.37800000  0.86270000  0.80570000  1
  H  H395  1  0.17410000  0.45380000  0.00760000  1
  H  H396  1  0.79450000  0.84030000  0.38650000  1
  H  H397  1  0.23770000  0.81810000  0.93790000  1
  H  H398  1  0.85930000  0.10080000  0.31540000  1
  H  H399  1  0.52630000  0.59860000  0.64800000  1
  H  H400  1  0.12790000  0.00760000  0.04620000  1
  H  H401  1  0.87870000  0.31530000  0.29030000  1
  H  H402  1  0.81300000  0.88320000  0.35420000  1
  H  H403  1  0.66870000  0.11790000  0.49410000  1
  H  H404  1  0.43030000  0.07140000  0.72940000  1
  H  H405  1  0.06340000  0.24550000  0.09490000  1
  H  H406  1  0.35420000  0.52820000  0.80000000  1
  H  H407  1  0.66930000  0.36250000  0.48010000  1
  H  H408  1  0.93530000  0.65170000  0.20890000  1
  H  H409  1  0.53990000  0.68460000  0.60080000  1
  H  H410  1  0.07190000  0.97260000  0.06680000  1
  H  H411  1  0.26560000  0.49740000  0.87200000  1
  H  H412  1  0.02130000  0.65970000  0.11350000  1
  H  H413  1  0.11980000  0.91690000  0.00970000  1
  H  H414  1  0.63550000  0.04620000  0.49240000  1
  H  H415  1  0.78070000  0.43370000  0.34650000  1
  H  H416  1  0.31940000  0.78450000  0.80770000  1
  H  H417  1  0.68880000  0.29240000  0.43820000  1
  H  H418  1  0.51170000  0.96550000  0.61010000  1
  H  H419  1  0.30600000  0.70970000  0.81530000  1
  H  H420  1  0.53670000  0.00970000  0.58310000  1
  H  H421  1  0.67490000  0.89270000  0.44230000  1
  H  H422  1  0.37300000  0.57800000  0.74120000  1
  H  H423  1  0.13870000  0.43320000  0.97260000  1
  H  H424  1  0.72400000  0.29080000  0.38260000  1
  H  H425  1  0.96640000  0.87690000  0.13910000  1
  H  H426  1  0.78070000  0.80490000  0.32350000  1
  H  H427  1  0.90440000  0.52540000  0.19820000  1
  H  H428  1  0.57600000  0.14120000  0.52580000  1
  H  H429  1  0.07020000  0.80180000  0.02540000  1
  H  H430  1  0.89580000  0.82350000  0.19510000  1
  H  H431  1  0.87290000  0.30770000  0.21550000  1
  H  H432  1  0.12180000  0.88990000  0.96550000  1
  H  H433  1  0.79590000  0.84830000  0.29110000  1
  H  H434  1  0.43530000  0.55550000  0.65110000  1
  H  H435  1  0.90910000  0.69510000  0.17650000  1
  H  H436  1  0.74420000  0.36740000  0.34120000  1
  H  H437  1  0.67460000  0.22430000  0.41070000  1
  H  H438  1  0.80080000  0.67220000  0.28280000  1
  H  H439  1  0.92750000  0.59500000  0.15320000  1
  H  H440  1  0.78680000  0.72600000  0.29220000  1
  H  H441  1  0.55770000  0.51070000  0.51990000  1
  H  H442  1  0.29660000  0.61020000  0.77920000  1
  H  H443  1  0.22670000  0.57510000  0.84910000  1
  H  H444  1  0.32990000  0.90120000  0.74540000  1
  H  H445  1  0.97750000  0.84680000  0.09500000  1
  H  H446  1  0.54450000  0.06680000  0.52740000  1
  H  H447  1  0.30240000  0.51660000  0.76840000  1
  H  H448  1  0.37200000  0.02540000  0.69820000  1
  H  H449  1  0.00990000  0.60730000  0.05770000  1
  H  H450  1  0.73710000  0.69620000  0.33020000  1
  H  H451  1  0.23650000  0.19620000  0.83020000  1
  H  H452  1  0.91300000  0.79110000  0.15170000  1
  H  H453  1  0.80890000  0.09490000  0.25450000  1
  H  H454  1  0.21430000  0.48440000  0.84100000  1
  H  H455  1  0.97700000  0.92540000  0.07500000  1
  H  H456  1  0.16720000  0.14580000  0.88320000  1
  H  H457  1  0.18370000  0.69430000  0.86270000  1
  H  H458  1  0.12950000  0.49030000  0.91690000  1
  H  H459  1  0.28990000  0.98270000  0.74750000  1
  H  H460  1  0.65670000  0.86090000  0.37690000  1
  H  H461  1  0.44590000  0.51320000  0.58620000  1
  H  H462  1  0.61390000  0.16520000  0.41360000  1
  H  H463  1  0.24420000  0.17220000  0.78280000  1
  H  H464  1  0.92470000  0.24540000  0.09880000  1
  H  H465  1  0.59760000  0.92500000  0.42540000  1
  H  H466  1  0.91270000  0.46550000  0.11010000  1
  H  H467  1  0.94800000  0.57500000  0.07460000  1
  H  H468  1  0.67570000  0.90500000  0.34680000  1
  H  H469  1  0.18100000  0.11350000  0.84030000  1
  H  H470  1  0.03740000  0.75250000  0.98270000  1
  H  H471  1  0.39510000  0.66430000  0.62330000  1
  H  H472  1  0.89450000  0.63910000  0.12310000  1
  H  H473  1  0.27930000  0.58820000  0.73760000  1
  H  H474  1  0.70750000  0.57360000  0.30840000  1
  H  H475  1  0.80500000  0.77400000  0.20780000  1
  H  H476  1  0.11720000  0.05770000  0.89270000  1
  H  H477  1  0.82440000  0.43790000  0.18190000  1
  H  H478  1  0.23110000  0.42860000  0.77060000  1
  H  H479  1  0.56960000  0.33910000  0.43190000  1
  C  C480  1  0.85872000  0.85986000  0.14030000  1
  C  C481  1  0.87511000  0.23897000  0.11821000  1
  C  C482  1  0.87067000  0.19297000  0.12249000  1
  C  C483  1  0.58175000  0.19641000  0.41129000  1
  C  C484  1  0.07608000  0.08327000  0.91297000  1
  C  C485  1  0.39240000  0.68170000  0.59410000  1
  C  C486  1  0.79210000  0.80468000  0.19332000  1
  C  C487  1  0.44503000  0.90738000  0.53836000  1
  C  C488  1  0.57234000  0.27672000  0.40620000  1
  C  C489  1  0.38178000  0.76878000  0.59046000  1
  C  C490  1  0.86321000  0.48028000  0.09870000  1
  C  C491  1  0.05581000  0.84351000  0.90327000  1
  C  C492  1  0.12801000  0.18245000  0.82933000  1
  C  C493  1  0.81133000  0.27487000  0.14067000  1
  C  C494  1  0.20044000  0.44657000  0.75055000  1
  C  C495  1  0.79651000  0.18353000  0.15025000  1
  C  C496  1  0.06105000  0.12735000  0.88435000  1
  C  C497  1  0.77460000  0.44972000  0.17008000  1
  C  C498  1  0.60068000  0.09673000  0.34351000  1
  C  C499  1  0.91422000  0.33705000  0.02671000  1
  C  C500  1  0.23686000  0.44525000  0.70363000  1
  C  C501  1  0.31160000  0.11565000  0.62735000  1
  C  C502  1  0.89185000  0.91149000  0.04681000  1
  C  C503  1  0.51460000  0.47019000  0.41481000  1
  C  C504  1  0.01095000  0.41297000  0.91673000  1
  C  C505  1  0.05460000  0.38435000  0.87265000  1
  C  C506  1  0.68580000  0.41704000  0.24096000  1
  C  C507  1  0.68560000  0.99875000  0.23985000  1
  C  C508  1  0.92545000  0.26015000  0.99875000  1
  C  C509  1  0.78417000  0.49071000  0.13995000  1
  C  C510  1  0.34065000  0.08703000  0.58327000  1
  C  C511  1  0.85741000  0.44875000  0.06443000  1
  C  C512  1  0.75127000  0.02671000  0.16295000  1
  C  C513  1  0.41104000  0.92522000  0.49830000  1
  C  C514  1  0.73892000  0.26559000  0.16857000  1
  C  C515  1  0.69572000  0.45924000  0.21172000  1
  C  C516  1  0.31596000  0.69001000  0.59067000  1
  C  C517  1  0.63718000  0.97351000  0.26913000  1
  C  C518  1  0.73112000  0.22098000  0.17318000  1
  C  C519  1  0.20990000  0.30468000  0.69332000  1
  C  C520  1  0.44871000  0.47097000  0.45421000  1
  C  C521  1  0.52125000  0.44433000  0.37677000  1
  C  C522  1  0.49257000  0.28467000  0.40319000  1
  C  C523  1  0.26302000  0.62090000  0.62906000  1
  C  C524  1  0.30334000  0.04681000  0.58851000  1
  C  C525  1  0.69956000  0.99768000  0.19140000  1
  C  C526  1  0.98339000  0.96164000  0.90738000  1
  C  C527  1  0.12018000  0.47351000  0.76913000  1
  C  C528  1  0.89096000  0.30860000  0.99768000  1
  C  C529  1  0.13378000  0.90601000  0.75183000  1
  C  C530  1  0.29375000  0.64431000  0.58999000  1
  C  C531  1  0.90631000  0.23087000  0.97351000  1
  C  C532  1  0.61408000  0.11821000  0.26103000  1
  C  C533  1  0.09570000  0.67318000  0.77902000  1
  C  C534  1  0.18954000  0.17067000  0.68245000  1
  C  C535  1  0.56364000  0.12249000  0.30703000  1
  C  C536  1  0.05324000  0.65025000  0.81647000  1
  C  C537  1  0.24254000  0.58099000  0.62573000  1
  C  C538  1  0.19407000  0.47108000  0.67318000  1
  C  C539  1  0.46021000  0.24817000  0.40601000  1
  C  C540  1  0.84349000  0.09870000  0.01972000  1
  C  C541  1  0.04266000  0.32933000  0.81755000  1
  C  C542  1  0.37874000  0.88822000  0.48110000  1
  C  C543  1  0.99902000  0.35970000  0.85986000  1
  C  C544  1  0.21858000  0.14030000  0.64014000  1
  C  C545  1  0.80616000  0.06443000  0.05125000  1
  C  C546  1  0.30694000  0.62364000  0.54828000  1
  C  C547  1  0.60244000  0.94657000  0.25055000  1
  C  C548  1  0.89077000  0.59262000  0.96164000  1
  C  C549  1  0.93866000  0.45319000  0.91149000  1
  C  C550  1  0.39142000  0.44579000  0.45717000  1
  C  C551  1  0.46716000  0.41882000  0.37846000  1
  C  C552  1  0.44219000  0.01972000  0.40130000  1
  C  C553  1  0.83456000  0.57478000  0.00170000  1
  C  C554  1  0.66167000  0.97108000  0.17318000  1
  C  C555  1  0.90934000  0.00170000  0.92522000  1
  C  C556  1  0.28608000  0.58330000  0.54734000  1
  C  C557  1  0.09251000  0.66857000  0.73441000  1
  C  C558  1  0.40187000  0.41783000  0.41883000  1
  C  C559  1  0.10424000  0.90319000  0.71533000  1
  C  C560  1  0.32078000  0.45118000  0.49866000  1
  C  C561  1  0.61426000  0.94525000  0.20363000  1
  C  C562  1  0.07580000  0.49875000  0.73985000  1
  C  C563  1  0.00684000  0.62249000  0.80703000  1
  C  C564  1  0.58620000  0.14067000  0.22513000  1
  C  C565  1  0.00696000  0.91129000  0.80359000  1
  C  C566  1  0.13979000  0.31755000  0.67067000  1
  C  C567  1  0.37059000  0.05125000  0.43557000  1
  C  C568  1  0.83485000  0.32682000  0.97108000  1
  C  C569  1  0.11136000  0.49768000  0.69140000  1
  C  C570  1  0.95908000  0.59673000  0.84351000  1
  C  C571  1  0.85299000  0.24945000  0.94657000  1
  C  C572  1  0.48004000  0.15025000  0.31647000  1
  C  C573  1  0.09678000  0.19332000  0.69532000  1
  C  C574  1  0.88561000  0.74817000  0.90601000  1
  C  C575  1  0.98542000  0.30668000  0.80468000  1
  C  C576  1  0.35060000  0.90514000  0.43766000  1
  C  C577  1  0.77488000  0.13995000  0.00929000  1
  C  C578  1  0.14112000  0.35986000  0.64030000  1
  C  C579  1  0.41483000  0.00929000  0.36005000  1
  C  C580  1  0.72432000  0.17008000  0.05028000  1
  C  C581  1  0.04800000  0.64067000  0.72513000  1
  C  C582  1  0.00668000  0.61821000  0.76103000  1
  C  C583  1  0.74806000  0.61178000  0.01890000  1
  C  C584  1  0.81789000  0.29637000  0.94525000  1
  C  C585  1  0.17930000  0.91883000  0.58217000  1
  C  C586  1  0.67647000  0.37427000  0.08099000  1
  C  C587  1  0.69340000  0.59486000  0.06234000  1
  C  C588  1  0.27798000  0.16295000  0.47329000  1
  C  C589  1  0.85984000  0.01890000  0.88822000  1
  C  C590  1  0.02146000  0.90620000  0.72328000  1
  C  C591  1  0.97224000  0.90954000  0.76878000  1
  C  C592  1  0.50451000  0.16857000  0.23441000  1
  C  C593  1  0.61608000  0.37094000  0.12090000  1
  C  C594  1  0.15438000  0.87846000  0.58118000  1
  C  C595  1  0.30880000  0.88450000  0.42470000  1
  C  C596  1  0.45210000  0.17318000  0.27902000  1
  C  C597  1  0.18056000  0.99866000  0.54882000  1
  C  C598  1  0.72938000  0.95118000  0.99866000  1
  C  C599  1  0.39440000  0.05028000  0.32992000  1
  C  C600  1  0.81957000  0.78467000  0.90319000  1
  C  C601  1  0.05907000  0.52671000  0.66295000  1
  C  C602  1  0.81055000  0.69641000  0.91129000  1
  C  C603  1  0.31370000  0.62070000  0.40770000  1
  C  C604  1  0.63062000  0.45266000  0.08330000  1
  C  C605  1  0.56194000  0.41001000  0.14431000  1
  C  C606  1  0.15141000  0.95717000  0.55421000  1
  C  C607  1  0.19724000  0.19140000  0.50232000  1
  C  C608  1  0.14985000  0.41149000  0.54681000  1
  C  C609  1  0.65496000  0.21172000  0.04076000  1
  C  C610  1  0.78826000  0.06234000  0.90514000  1
  C  C611  1  0.61800000  0.61550000  0.07530000  1
  C  C612  1  0.56942000  0.45172000  0.12364000  1
  C  C613  1  0.30670000  0.57530000  0.38450000  1
  C  C614  1  0.07275000  0.37265000  0.61565000  1
  C  C615  1  0.56560000  0.59230000  0.12070000  1
  C  C616  1  0.60284000  0.24096000  0.08296000  1
  C  C617  1  0.18435000  0.23985000  0.50125000  1
  C  C618  1  0.49403000  0.40933000  0.19001000  1
  C  C619  1  0.76147000  0.91783000  0.91883000  1
  C  C620  1  0.72804000  0.50134000  0.95118000  1
  C  C621  1  0.55074000  0.08099000  0.12573000  1
  C  C622  1  0.98650000  0.90590000  0.68170000  1
  C  C623  1  0.70562000  0.94579000  0.95717000  1
  C  C624  1  0.13275000  0.17318000  0.52892000  1
  C  C625  1  0.07232000  0.41673000  0.58703000  1
  C  C626  1  0.27860000  0.90770000  0.37930000  1
  C  C627  1  0.10198000  0.87677000  0.55567000  1
  C  C628  1  0.07324000  0.74096000  0.58296000  1
  C  C629  1  0.36668000  0.04076000  0.28828000  1
  C  C630  1  0.74474000  0.77672000  0.90620000  1
  C  C631  1  0.74102000  0.73122000  0.90954000  1
  C  C632  1  0.24426000  0.56234000  0.40514000  1
  C  C633  1  0.11069000  0.26913000  0.52649000  1
  C  C634  1  0.09256000  0.71172000  0.54076000  1
  C  C635  1  0.58328000  0.08330000  0.04734000  1
  C  C636  1  0.07816000  0.56443000  0.55125000  1
  C  C637  1  0.09708000  0.95421000  0.52903000  1
  C  C638  1  0.23304000  0.51890000  0.38822000  1
  C  C639  1  0.34944000  0.40954000  0.26878000  1
  C  C640  1  0.73350000  0.07530000  0.88450000  1
  C  C641  1  0.48702000  0.12090000  0.12906000  1
  C  C642  1  0.05951000  0.20363000  0.55475000  1
  C  C643  1  0.23229000  0.26103000  0.38179000  1
  C  C644  1  0.73556000  0.91882000  0.87846000  1
  C  C645  1  0.66279000  0.54283000  0.94579000  1
  C  C646  1  0.42590000  0.40590000  0.18170000  1
  C  C647  1  0.05532000  0.67008000  0.55028000  1
  C  C648  1  0.34380000  0.08296000  0.25904000  1
  C  C649  1  0.04901000  0.25055000  0.55343000  1
  C  C650  1  0.19741000  0.34351000  0.40327000  1
  C  C651  1  0.07059000  0.91481000  0.52981000  1
  C  C652  1  0.68030000  0.58117000  0.91783000  1
  C  C653  1  0.90663000  0.90933000  0.69001000  1
  C  C654  1  0.16374000  0.50170000  0.42522000  1
  C  C655  1  0.22687000  0.22513000  0.35933000  1
  C  C656  1  0.07588000  0.63995000  0.50929000  1
  C  C657  1  0.16658000  0.04734000  0.41670000  1
  C  C658  1  0.27816000  0.41129000  0.30359000  1
  C  C659  1  0.62611000  0.97097000  0.95421000  1
  C  C660  1  0.66820000  0.81830000  0.90590000  1
  C  C661  1  0.34906000  0.40620000  0.22328000  1
  C  C662  1  0.52114000  0.12364000  0.04828000  1
  C  C663  1  0.65790000  0.12070000  0.90770000  1
  C  C664  1  0.18613000  0.30703000  0.37751000  1
  C  C665  1  0.47195000  0.14431000  0.08999000  1
  C  C666  1  0.03809000  0.59870000  0.51972000  1
  C  C667  1  0.14759000  0.46164000  0.40738000  1
  C  C668  1  0.58032000  0.54579000  0.97097000  1
  C  C669  1  0.13173000  0.12573000  0.41901000  1
  C  C670  1  0.87472000  0.72098000  0.67318000  1
  C  C671  1  0.79162000  0.59399000  0.74817000  1
  C  C672  1  0.65765000  0.94433000  0.87677000  1
  C  C673  1  0.61402000  0.62154000  0.91882000  1
  C  C674  1  0.88374000  0.91001000  0.64431000  1
  C  C675  1  0.46558000  0.37677000  0.05567000  1
  C  C676  1  0.14478000  0.04828000  0.37636000  1
  C  C677  1  0.86971000  0.68353000  0.65025000  1
  C  C678  1  0.60040000  0.97019000  0.91481000  1
  C  C679  1  0.48479000  0.41481000  0.02981000  1
  C  C680  1  0.89208000  0.87094000  0.62090000  1
  C  C681  1  0.72276000  0.59681000  0.78467000  1
  C  C682  1  0.59664000  0.80999000  0.90933000  1
  C  C683  1  0.17308000  0.23441000  0.33143000  1
  C  C684  1  0.82692000  0.76559000  0.66857000  1
  C  C685  1  0.40336000  0.19001000  0.09067000  1
  C  C686  1  0.27724000  0.40319000  0.21533000  1
  C  C687  1  0.10792000  0.12906000  0.37910000  1
  C  C688  1  0.51521000  0.58519000  0.97019000  1
  C  C689  1  0.39960000  0.02981000  0.08519000  1
  C  C690  1  0.13029000  0.31647000  0.34975000  1
  C  C691  1  0.85522000  0.95172000  0.62364000  1
  C  C692  1  0.53442000  0.62323000  0.94433000  1
  C  C693  1  0.11626000  0.08999000  0.35569000  1
  C  C694  1  0.38598000  0.37846000  0.08118000  1
  C  C695  1  0.34235000  0.05567000  0.12323000  1
  C  C696  1  0.20838000  0.40601000  0.25183000  1
  C  C697  1  0.12528000  0.27902000  0.32682000  1
  C  C698  1  0.86827000  0.87427000  0.58099000  1
  C  C699  1  0.41968000  0.45421000  0.02903000  1
  C  C700  1  0.85241000  0.53836000  0.59262000  1
  C  C701  1  0.96191000  0.40130000  0.48028000  1
  C  C702  1  0.52805000  0.85569000  0.91001000  1
  C  C703  1  0.81387000  0.69297000  0.62249000  1
  C  C704  1  0.34210000  0.87930000  0.09230000  1
  C  C705  1  0.47886000  0.87636000  0.95172000  1
  C  C706  1  0.65094000  0.59380000  0.77672000  1
  C  C707  1  0.33180000  0.18170000  0.09410000  1
  C  C708  1  0.37389000  0.02903000  0.04579000  1
  C  C709  1  0.72184000  0.58871000  0.69641000  1
  C  C710  1  0.83342000  0.95266000  0.58330000  1
  C  C711  1  0.92412000  0.36005000  0.49071000  1
  C  C712  1  0.77313000  0.77487000  0.64067000  1
  C  C713  1  0.83626000  0.49830000  0.57478000  1
  C  C714  1  0.09337000  0.09067000  0.30999000  1
  C  C715  1  0.31970000  0.41883000  0.08217000  1
  C  C716  1  0.92941000  0.08519000  0.47019000  1
  C  C717  1  0.80259000  0.65649000  0.59673000  1
  C  C718  1  0.95099000  0.74945000  0.44657000  1
  C  C719  1  0.65620000  0.91704000  0.74096000  1
  C  C720  1  0.94468000  0.32992000  0.44972000  1
  C  C721  1  0.57410000  0.59410000  0.81830000  1
  C  C722  1  0.33721000  0.45717000  0.05421000  1
  C  C723  1  0.26444000  0.08118000  0.12154000  1
  C  C724  1  0.76771000  0.73897000  0.61821000  1
  C  C725  1  0.94049000  0.79637000  0.44525000  1
  C  C726  1  0.51298000  0.87910000  0.87094000  1
  C  C727  1  0.26650000  0.92470000  0.11550000  1
  C  C728  1  0.65056000  0.59046000  0.73122000  1
  C  C729  1  0.76696000  0.48110000  0.61178000  1
  C  C730  1  0.90292000  0.04579000  0.47097000  1
  C  C731  1  0.92184000  0.43557000  0.44875000  1
  C  C732  1  0.41672000  0.91670000  0.95266000  1
  C  C733  1  0.90744000  0.28828000  0.45924000  1
  C  C734  1  0.88931000  0.73087000  0.47351000  1
  C  C735  1  0.75574000  0.43766000  0.59486000  1
  C  C736  1  0.25898000  0.26878000  0.09046000  1
  C  C737  1  0.25526000  0.22328000  0.09380000  1
  C  C738  1  0.63332000  0.95924000  0.71172000  1
  C  C739  1  0.92676000  0.25904000  0.41704000  1
  C  C740  1  0.89802000  0.12323000  0.44433000  1
  C  C741  1  0.72140000  0.09230000  0.62070000  1
  C  C742  1  0.92768000  0.58327000  0.41297000  1
  C  C743  1  0.86725000  0.82682000  0.47108000  1
  C  C744  1  0.29438000  0.05421000  0.04283000  1
  C  C745  1  0.01350000  0.09410000  0.31830000  1
  C  C746  1  0.44926000  0.91901000  0.87427000  1
  C  C747  1  0.27196000  0.49866000  0.04882000  1
  C  C748  1  0.23853000  0.08217000  0.08117000  1
  C  C749  1  0.50597000  0.59067000  0.80999000  1
  C  C750  1  0.81565000  0.76015000  0.49875000  1
  C  C751  1  0.39716000  0.75904000  0.91704000  1
  C  C752  1  0.43440000  0.40770000  0.87930000  1
  C  C753  1  0.92725000  0.62735000  0.38435000  1
  C  C754  1  0.69330000  0.42470000  0.61550000  1
  C  C755  1  0.43058000  0.54828000  0.87636000  1
  C  C756  1  0.38200000  0.38450000  0.92470000  1
  C  C757  1  0.21174000  0.93766000  0.09486000  1
  C  C758  1  0.34504000  0.78828000  0.95924000  1
  C  C759  1  0.85015000  0.58851000  0.45319000  1
  C  C760  1  0.80276000  0.80860000  0.49768000  1
  C  C761  1  0.84859000  0.04283000  0.44579000  1
  C  C762  1  0.43806000  0.58999000  0.85569000  1
  C  C763  1  0.36938000  0.54734000  0.91670000  1
  C  C764  1  0.68630000  0.37930000  0.59230000  1
  C  C765  1  0.18945000  0.30359000  0.08871000  1
  C  C766  1  0.94093000  0.47329000  0.33705000  1
  C  C767  1  0.18043000  0.21533000  0.09681000  1
  C  C768  1  0.60560000  0.94972000  0.67008000  1
  C  C769  1  0.27062000  0.04882000  0.00134000  1
  C  C770  1  0.81944000  0.00134000  0.45118000  1
  C  C771  1  0.54790000  0.82682000  0.72098000  1
  C  C772  1  0.69120000  0.11550000  0.57530000  1
  C  C773  1  0.84562000  0.12154000  0.41882000  1
  C  C774  1  0.38392000  0.62906000  0.87910000  1
  C  C775  1  0.49549000  0.83143000  0.76559000  1
  C  C776  1  0.02776000  0.09046000  0.23122000  1
  C  C777  1  0.97854000  0.09380000  0.27672000  1
  C  C778  1  0.14016000  0.98110000  0.11178000  1
  C  C779  1  0.72202000  0.83705000  0.52671000  1
  C  C780  1  0.30660000  0.40514000  0.93766000  1
  C  C781  1  0.32353000  0.62573000  0.91901000  1
  C  C782  1  0.82070000  0.08117000  0.41783000  1
  C  C783  1  0.18211000  0.70363000  0.05475000  1
  C  C784  1  0.25194000  0.38822000  0.98110000  1
  C  C785  1  0.99332000  0.38179000  0.23897000  1
  C  C786  1  0.95200000  0.35933000  0.27487000  1
  C  C787  1  0.27568000  0.82992000  0.94972000  1
  C  C788  1  0.58517000  0.99071000  0.63995000  1
  C  C789  1  0.85888000  0.64014000  0.35970000  1
  C  C790  1  0.22512000  0.86005000  0.99071000  1
  C  C791  1  0.64940000  0.09486000  0.56234000  1
  C  C792  1  0.01458000  0.69332000  0.19532000  1
  C  C793  1  0.11439000  0.25183000  0.09399000  1
  C  C794  1  0.90322000  0.80668000  0.30468000  1
  C  C795  1  0.51996000  0.84975000  0.68353000  1
  C  C796  1  0.14701000  0.75055000  0.05343000  1
  C  C797  1  0.04092000  0.40327000  0.15649000  1
  C  C798  1  0.88864000  0.50232000  0.30860000  1
  C  C799  1  0.16515000  0.67318000  0.02892000  1
  C  C800  1  0.62941000  0.94875000  0.56443000  1
  C  C801  1  0.86021000  0.68245000  0.32933000  1
  C  C802  1  0.99304000  0.08871000  0.19641000  1
  C  C803  1  0.41380000  0.85933000  0.77487000  1
  C  C804  1  0.99316000  0.37751000  0.19297000  1
  C  C805  1  0.92420000  0.50125000  0.26015000  1
  C  C806  1  0.38574000  0.05475000  0.79637000  1
  C  C807  1  0.67922000  0.54882000  0.50134000  1
  C  C808  1  0.89576000  0.09681000  0.28467000  1
  C  C809  1  0.59813000  0.58217000  0.58117000  1
  C  C810  1  0.90749000  0.33143000  0.26559000  1
  C  C811  1  0.71392000  0.41670000  0.45266000  1
  C  C812  1  0.09066000  0.99830000  0.07478000  1
  C  C813  1  0.33833000  0.02892000  0.82682000  1
  C  C814  1  0.16544000  0.42522000  0.99830000  1
  C  C815  1  0.55781000  0.98028000  0.59870000  1
  C  C816  1  0.53284000  0.58118000  0.62154000  1
  C  C817  1  0.60858000  0.55421000  0.54283000  1
  C  C818  1  0.06134000  0.54681000  0.08851000  1
  C  C819  1  0.10923000  0.40738000  0.03836000  1
  C  C820  1  0.39756000  0.05343000  0.74945000  1
  C  C821  1  0.69306000  0.37636000  0.45172000  1
  C  C822  1  0.19384000  0.93557000  0.94875000  1
  C  C823  1  0.78142000  0.85970000  0.35986000  1
  C  C824  1  0.00098000  0.64030000  0.14014000  1
  C  C825  1  0.62126000  0.11178000  0.51890000  1
  C  C826  1  0.95734000  0.67067000  0.18245000  1
  C  C827  1  0.15651000  0.90130000  0.98028000  1
  C  C828  1  0.53979000  0.75183000  0.59399000  1
  C  C829  1  0.80593000  0.52892000  0.32682000  1
  C  C830  1  0.75746000  0.41901000  0.37427000  1
  C  C831  1  0.94676000  0.34975000  0.18353000  1
  C  C832  1  0.43636000  0.87751000  0.69297000  1
  C  C833  1  0.81046000  0.82933000  0.31755000  1
  C  C834  1  0.90430000  0.32682000  0.22098000  1
  C  C835  1  0.38592000  0.88179000  0.73897000  1
  C  C836  1  0.09369000  0.76913000  0.02649000  1
  C  C837  1  0.70625000  0.35569000  0.41001000  1
  C  C838  1  0.86622000  0.09399000  0.24817000  1
  C  C839  1  0.10904000  0.69140000  0.00232000  1
  C  C840  1  0.87982000  0.52649000  0.23087000  1
  C  C841  1  0.01661000  0.03836000  0.09262000  1
  C  C842  1  0.30044000  0.00232000  0.80860000  1
  C  C843  1  0.69666000  0.95319000  0.41149000  1
  C  C844  1  0.73698000  0.37910000  0.37094000  1
  C  C845  1  0.50743000  0.71533000  0.59681000  1
  C  C846  1  0.47875000  0.55567000  0.62323000  1
  C  C847  1  0.55129000  0.52903000  0.54579000  1
  C  C848  1  0.79010000  0.69532000  0.30668000  1
  C  C849  1  0.26888000  0.77902000  0.82682000  1
  C  C850  1  0.36282000  0.02649000  0.73087000  1
  C  C851  1  0.68404000  0.30999000  0.40933000  1
  C  C852  1  0.30428000  0.54076000  0.78828000  1
  C  C853  1  0.26108000  0.73441000  0.83143000  1
  C  C854  1  0.58896000  0.07478000  0.50170000  1
  C  C855  1  0.24873000  0.97329000  0.83705000  1
  C  C856  1  0.14259000  0.55125000  0.93557000  1
  C  C857  1  0.65935000  0.91297000  0.41673000  1
  C  C858  1  0.21583000  0.50929000  0.86005000  1
  C  C859  1  0.07455000  0.73985000  0.00125000  1
  C  C860  1  0.31440000  0.00125000  0.76015000  1
  C  C861  1  0.31420000  0.58296000  0.75904000  1
  C  C862  1  0.94540000  0.61565000  0.12735000  1
  C  C863  1  0.98905000  0.58703000  0.08327000  1
  C  C864  1  0.48540000  0.52981000  0.58519000  1
  C  C865  1  0.10815000  0.08851000  0.95319000  1
  C  C866  1  0.68840000  0.88435000  0.37265000  1
  C  C867  1  0.76314000  0.55475000  0.29637000  1
  C  C868  1  0.08578000  0.66295000  0.97329000  1
  C  C869  1  0.39932000  0.90327000  0.65649000  1
  C  C870  1  0.22540000  0.55028000  0.82992000  1
  C  C871  1  0.93895000  0.87265000  0.11565000  1
  C  C872  1  0.20349000  0.81647000  0.84975000  1
  C  C873  1  0.79956000  0.55343000  0.24945000  1
  C  C874  1  0.18867000  0.72513000  0.85933000  1
  C  C875  1  0.87199000  0.81755000  0.17067000  1
  C  C876  1  0.94419000  0.15649000  0.09673000  1
  C  C877  1  0.13679000  0.51972000  0.90130000  1
  C  C878  1  0.61822000  0.23122000  0.40954000  1
  C  C879  1  0.42766000  0.72328000  0.59380000  1
  C  C880  1  0.55497000  0.09262000  0.46164000  1
  C  C881  1  0.20790000  0.19532000  0.80668000  1
  C  C882  1  0.60760000  0.31830000  0.40590000  1
  C  C883  1  0.92392000  0.91673000  0.08703000  1
  C  C884  1  0.41825000  0.80359000  0.58871000  1
  C  C885  1  0.12933000  0.80703000  0.87751000  1
  C  C886  1  0.12489000  0.76103000  0.88179000  1
  C  C887  1  0.14128000  0.14014000  0.85970000  1
  N  N888  1  0.40301000  0.92187000  0.58007000  1
  N  N889  1  0.89837000  0.40528000  0.06172000  1
  N  N890  1  0.05803000  0.88766000  0.89784000  1
  N  N891  1  0.55431000  0.10216000  0.38766000  1
  N  N892  1  0.50227000  0.20425000  0.40995000  1
  N  N893  1  0.87719000  0.38199000  0.02983000  1
  N  N894  1  0.98308000  0.91993000  0.92187000  1
  N  N895  1  0.80365000  0.06172000  0.09472000  1
  N  N896  1  0.08778000  0.90995000  0.79575000  1
  N  N897  1  0.75918000  0.02983000  0.11801000  1
  N  N898  1  0.82033000  0.93838000  0.04362000  1
  N  N899  1  0.95587000  0.60216000  0.88766000  1
  N  N900  1  0.25380000  0.56184000  0.58556000  1
  N  N901  1  0.90495000  0.57813000  0.91993000  1
  N  N902  1  0.25871000  0.04362000  0.56162000  1
  N  N903  1  0.80401000  0.92842000  0.00266000  1
  N  N904  1  0.23243000  0.00266000  0.57158000  1
  N  N905  1  0.36537000  0.09472000  0.43828000  1
  N  N906  1  0.86395000  0.45638000  0.93838000  1
  N  N907  1  0.88353000  0.70425000  0.90995000  1
  N  N908  1  0.26491000  0.42842000  0.50266000  1
  N  N909  1  0.28901000  0.11801000  0.47017000  1
  N  N910  1  0.68436000  0.41444000  0.06184000  1
  N  N911  1  0.19767000  0.43838000  0.54362000  1
  N  N912  1  0.80667000  0.49734000  0.92842000  1
  N  N913  1  0.09298000  0.52983000  0.61801000  1
  N  N914  1  0.59880000  0.06184000  0.08556000  1
  N  N915  1  0.03991000  0.56172000  0.59472000  1
  N  N916  1  0.16064000  0.08556000  0.43816000  1
  N  N917  1  0.17512000  0.41993000  0.42187000  1
  N  N918  1  0.15647000  0.38766000  0.39784000  1
  N  N919  1  0.20652000  0.40995000  0.29575000  1
  N  N920  1  0.79348000  0.59005000  0.70425000  1
  N  N921  1  0.84353000  0.61234000  0.60216000  1
  N  N922  1  0.82488000  0.58007000  0.57813000  1
  N  N923  1  0.83936000  0.91444000  0.56184000  1
  N  N924  1  0.96009000  0.43828000  0.40528000  1
  N  N925  1  0.40120000  0.93816000  0.91444000  1
  N  N926  1  0.90702000  0.47017000  0.38199000  1
  N  N927  1  0.19333000  0.50266000  0.07158000  1
  N  N928  1  0.80233000  0.56162000  0.45638000  1
  N  N929  1  0.31564000  0.58556000  0.93816000  1
  N  N930  1  0.71099000  0.88199000  0.52983000  1
  N  N931  1  0.73509000  0.57158000  0.49734000  1
  N  N932  1  0.11647000  0.29575000  0.09005000  1
  N  N933  1  0.13605000  0.54362000  0.06162000  1
  N  N934  1  0.63463000  0.90528000  0.56172000  1
  N  N935  1  0.76757000  0.99734000  0.42842000  1
  N  N936  1  0.19599000  0.07158000  0.99734000  1
  N  N937  1  0.74129000  0.95638000  0.43838000  1
  N  N938  1  0.09505000  0.42187000  0.08007000  1
  N  N939  1  0.74620000  0.43816000  0.41444000  1
  N  N940  1  0.04413000  0.39784000  0.11234000  1
  N  N941  1  0.17967000  0.06162000  0.95638000  1
  N  N942  1  0.24082000  0.97017000  0.88199000  1
  N  N943  1  0.91222000  0.09005000  0.20425000  1
  N  N944  1  0.19635000  0.93828000  0.90528000  1
  N  N945  1  0.01692000  0.08007000  0.07813000  1
  N  N946  1  0.12281000  0.61801000  0.97017000  1
  N  N947  1  0.49773000  0.79575000  0.59005000  1
  N  N948  1  0.44569000  0.89784000  0.61234000  1
  N  N949  1  0.94197000  0.11234000  0.10216000  1
  N  N950  1  0.10163000  0.59472000  0.93828000  1
  N  N951  1  0.59699000  0.07813000  0.41993000  1
  O  O952  1  0.32406000  0.92968000  0.66782000  1
  O  O953  1  0.03121000  0.68276000  0.95168000  1
  O  O954  1  0.78603000  0.04832000  0.18276000  1
  O  O955  1  0.93893000  0.87955000  0.01601000  1
  O  O956  1  0.48254000  0.12425000  0.47091000  1
  O  O957  1  0.78359000  0.14169000  0.15725000  1
  O  O958  1  0.31848000  0.01601000  0.62045000  1
  O  O959  1  0.04655000  0.97091000  0.87575000  1
  O  O960  1  0.99188000  0.83218000  0.92968000  1
  O  O961  1  0.05916000  0.65725000  0.85831000  1
  O  O962  1  0.92230000  0.62425000  0.97091000  1
  O  O963  1  0.23501000  0.46790000  0.62796000  1
  O  O964  1  0.80558000  0.46699000  0.03935000  1
  O  O965  1  0.31396000  0.47925000  0.53031000  1
  O  O966  1  0.22816000  0.91832000  0.60904000  1
  O  O967  1  0.95494000  0.48399000  0.87955000  1
  O  O968  1  0.77257000  0.03935000  0.03301000  1
  O  O969  1  0.66913000  0.96790000  0.12796000  1
  O  O970  1  0.33435000  0.18276000  0.45168000  1
  O  O971  1  0.42528000  0.15725000  0.35831000  1
  O  O972  1  0.31192000  0.03301000  0.46065000  1
  O  O973  1  0.35352000  0.39096000  0.41832000  1
  O  O974  1  0.79709000  0.37204000  0.96790000  1
  O  O975  1  0.83720000  0.89096000  0.91832000  1
  O  O976  1  0.92156000  0.57032000  0.83218000  1
  O  O977  1  0.67648000  0.97925000  0.03031000  1
  O  O978  1  0.15507000  0.53935000  0.53301000  1
  O  O979  1  0.70679000  0.46969000  0.97925000  1
  O  O980  1  0.16551000  0.37955000  0.51601000  1
  O  O981  1  0.15573000  0.03031000  0.52075000  1
  O  O982  1  0.24626000  0.33218000  0.42968000  1
  O  O983  1  0.13703000  0.12796000  0.53210000  1
  O  O984  1  0.98289000  0.54832000  0.68276000  1
  O  O985  1  0.75552000  0.58168000  0.89096000  1
  O  O986  1  0.91747000  0.64169000  0.65725000  1
  O  O987  1  0.89321000  0.52909000  0.62425000  1
  O  O988  1  0.10679000  0.47091000  0.37575000  1
  O  O989  1  0.08253000  0.35831000  0.34275000  1
  O  O990  1  0.24448000  0.41832000  0.10904000  1
  O  O991  1  0.01711000  0.45168000  0.31724000  1
  O  O992  1  0.86297000  0.87204000  0.46790000  1
  O  O993  1  0.75374000  0.66782000  0.57032000  1
  O  O994  1  0.84427000  0.96969000  0.47925000  1
  O  O995  1  0.83449000  0.62045000  0.48399000  1
  O  O996  1  0.29321000  0.53031000  0.02075000  1
  O  O997  1  0.84493000  0.46065000  0.46699000  1
  O  O998  1  0.32352000  0.02075000  0.96969000  1
  O  O999  1  0.07844000  0.42968000  0.16782000  1
  O  O1000  1  0.16280000  0.10904000  0.08168000  1
  O  O1001  1  0.20291000  0.62796000  0.03210000  1
  O  O1002  1  0.64648000  0.60904000  0.58168000  1
  O  O1003  1  0.68808000  0.96699000  0.53935000  1
  O  O1004  1  0.57472000  0.84275000  0.64169000  1
  O  O1005  1  0.66565000  0.81724000  0.54832000  1
  O  O1006  1  0.33087000  0.03210000  0.87204000  1
  O  O1007  1  0.22743000  0.96065000  0.96699000  1
  O  O1008  1  0.04506000  0.51601000  0.12045000  1
  O  O1009  1  0.77184000  0.08168000  0.39096000  1
  O  O1010  1  0.68604000  0.52075000  0.46969000  1
  O  O1011  1  0.19442000  0.53301000  0.96065000  1
  O  O1012  1  0.76499000  0.53210000  0.37204000  1
  O  O1013  1  0.07770000  0.37575000  0.02909000  1
  O  O1014  1  0.94084000  0.34275000  0.14169000  1
  O  O1015  1  0.00812000  0.16782000  0.07032000  1
  O  O1016  1  0.95345000  0.02909000  0.12425000  1
  O  O1017  1  0.68152000  0.98399000  0.37955000  1
  O  O1018  1  0.21641000  0.85831000  0.84275000  1
  O  O1019  1  0.51746000  0.87575000  0.52909000  1
  O  O1020  1  0.06107000  0.12045000  0.98399000  1
  O  O1021  1  0.21397000  0.95168000  0.81724000  1
  O  O1022  1  0.96879000  0.31724000  0.04832000  1
  O  O1023  1  0.67594000  0.07032000  0.33218000  1
