# generated using pymatgen
data_Zn4H24C42O19
_symmetry_space_group_name_H-M   'P 1'
_cell_length_a   17.12270000
_cell_length_b   17.12270000
_cell_length_c   17.12270000
_cell_angle_alpha   90.00000000
_cell_angle_beta   90.00000000
_cell_angle_gamma   90.00000000
_symmetry_Int_Tables_number   1
_chemical_formula_structural   Zn4H24C42O19
_chemical_formula_sum   'Zn4 H24 C42 O19'
_cell_volume   5020.15056707
_cell_formula_units_Z   1
loop_
 _symmetry_equiv_pos_site_id
 _symmetry_equiv_pos_as_xyz
  1  'x, y, z'
loop_
 _atom_site_type_symbol
 _atom_site_label
 _atom_site_symmetry_multiplicity
 _atom_site_fract_x
 _atom_site_fract_y
 _atom_site_fract_z
 _atom_site_occupancy
  Zn  Zn0  1  0.43467000  0.43467000  0.56533000  1
  Zn  Zn1  1  0.43467000  0.56533000  0.43467000  1
  Zn  Zn2  1  0.56533000  0.43467000  0.43467000  1
  Zn  Zn3  1  0.56533000  0.56533000  0.56533000  1
  H  H4  1  0.02813000  0.44024000  0.64619000  1
  H  H5  1  0.05632000  0.58620000  0.41380000  1
  H  H6  1  0.20379000  0.41526000  0.58474000  1
  H  H7  1  0.20379000  0.58474000  0.41526000  1
  H  H8  1  0.39494000  0.07132000  0.64617000  1
  H  H9  1  0.39494000  0.64617000  0.07132000  1
  H  H10  1  0.39911000  0.44022000  0.01506000  1
  H  H11  1  0.41380000  0.94368000  0.41380000  1
  H  H12  1  0.41526000  0.20379000  0.58474000  1
  H  H13  1  0.41526000  0.41526000  0.79621000  1
  H  H14  1  0.41526000  0.58474000  0.20379000  1
  H  H15  1  0.41526000  0.79621000  0.41526000  1
  H  H16  1  0.55268000  0.99642000  0.62753000  1
  H  H17  1  0.58474000  0.20379000  0.41526000  1
  H  H18  1  0.58474000  0.41526000  0.20379000  1
  H  H19  1  0.58474000  0.58474000  0.79621000  1
  H  H20  1  0.58474000  0.79621000  0.58474000  1
  H  H21  1  0.58620000  0.05632000  0.41380000  1
  H  H22  1  0.58620000  0.41380000  0.05632000  1
  H  H23  1  0.58620000  0.58620000  0.94368000  1
  H  H24  1  0.79621000  0.41526000  0.41526000  1
  H  H25  1  0.79621000  0.58474000  0.58474000  1
  H  H26  1  0.92277000  0.62871000  0.62871000  1
  H  H27  1  0.94368000  0.41380000  0.41380000  1
  C  C28  1  0.04130000  0.50000000  0.50000000  1
  C  C29  1  0.08880000  0.45490000  0.54510000  1
  C  C30  1  0.08880000  0.54510000  0.45490000  1
  C  C31  1  0.16970000  0.45570000  0.54430000  1
  C  C32  1  0.16970000  0.54430000  0.45570000  1
  C  C33  1  0.21030000  0.50000000  0.50000000  1
  C  C34  1  0.28850000  0.50000000  0.50000000  1
  C  C35  1  0.45490000  0.08880000  0.54510000  1
  C  C36  1  0.45490000  0.45490000  0.91120000  1
  C  C37  1  0.45490000  0.54510000  0.08880000  1
  C  C38  1  0.45490000  0.91120000  0.45490000  1
  C  C39  1  0.45570000  0.16970000  0.54430000  1
  C  C40  1  0.45570000  0.45570000  0.83030000  1
  C  C41  1  0.45570000  0.54430000  0.16970000  1
  C  C42  1  0.45570000  0.83030000  0.45570000  1
  C  C43  1  0.50000000  0.04130000  0.50000000  1
  C  C44  1  0.50000000  0.21030000  0.50000000  1
  C  C45  1  0.50000000  0.28850000  0.50000000  1
  C  C46  1  0.50000000  0.50000000  0.04130000  1
  C  C47  1  0.50000000  0.50000000  0.21030000  1
  C  C48  1  0.50000000  0.50000000  0.28850000  1
  C  C49  1  0.50000000  0.50000000  0.71150000  1
  C  C50  1  0.50000000  0.50000000  0.78970000  1
  C  C51  1  0.50000000  0.50000000  0.95870000  1
  C  C52  1  0.50000000  0.71150000  0.50000000  1
  C  C53  1  0.50000000  0.78970000  0.50000000  1
  C  C54  1  0.50000000  0.95870000  0.50000000  1
  C  C55  1  0.54430000  0.16970000  0.45570000  1
  C  C56  1  0.54430000  0.45570000  0.16970000  1
  C  C57  1  0.54430000  0.54430000  0.83030000  1
  C  C58  1  0.54430000  0.83030000  0.54430000  1
  C  C59  1  0.54510000  0.08880000  0.45490000  1
  C  C60  1  0.54510000  0.45490000  0.08880000  1
  C  C61  1  0.54510000  0.54510000  0.91120000  1
  C  C62  1  0.54510000  0.91120000  0.54510000  1
  C  C63  1  0.71150000  0.50000000  0.50000000  1
  C  C64  1  0.78970000  0.50000000  0.50000000  1
  C  C65  1  0.83030000  0.45570000  0.45570000  1
  C  C66  1  0.83030000  0.54430000  0.54430000  1
  C  C67  1  0.91120000  0.45490000  0.45490000  1
  C  C68  1  0.91120000  0.54510000  0.54510000  1
  C  C69  1  0.95870000  0.50000000  0.50000000  1
  O  O70  1  0.04100000  0.40930000  0.59070000  1
  O  O71  1  0.32480000  0.45380000  0.54620000  1
  O  O72  1  0.32480000  0.54620000  0.45380000  1
  O  O73  1  0.40930000  0.04100000  0.59070000  1
  O  O74  1  0.40930000  0.40930000  0.95900000  1
  O  O75  1  0.40930000  0.59070000  0.04100000  1
  O  O76  1  0.45380000  0.32480000  0.54620000  1
  O  O77  1  0.45380000  0.45380000  0.67520000  1
  O  O78  1  0.45380000  0.54620000  0.32480000  1
  O  O79  1  0.45380000  0.67520000  0.45380000  1
  O  O80  1  0.50000000  0.50000000  0.50000000  1
  O  O81  1  0.54620000  0.32480000  0.45380000  1
  O  O82  1  0.54620000  0.45380000  0.32480000  1
  O  O83  1  0.54620000  0.54620000  0.67520000  1
  O  O84  1  0.54620000  0.67520000  0.54620000  1
  O  O85  1  0.59070000  0.95900000  0.59070000  1
  O  O86  1  0.67520000  0.45380000  0.45380000  1
  O  O87  1  0.67520000  0.54620000  0.54620000  1
  O  O88  1  0.95900000  0.59070000  0.59070000  1
