# generated using pymatgen
data_In4P5H5C4O23
_symmetry_space_group_name_H-M   'P 1'
_cell_length_a   8.06740000
_cell_length_b   10.00600000
_cell_length_c   20.44320000
_cell_angle_alpha   100.97200000
_cell_angle_beta   95.06500000
_cell_angle_gamma   105.05300000
_symmetry_Int_Tables_number   1
_chemical_formula_structural   In4P5H5C4O23
_chemical_formula_sum   'In8 P10 H10 C8 O46'
_cell_volume   1547.87318044
_cell_formula_units_Z   2
loop_
 _symmetry_equiv_pos_site_id
 _symmetry_equiv_pos_as_xyz
  1  'x, y, z'
loop_
 _atom_site_type_symbol
 _atom_site_label
 _atom_site_symmetry_multiplicity
 _atom_site_fract_x
 _atom_site_fract_y
 _atom_site_fract_z
 _atom_site_occupancy
  In  In0  1  0.02231000  0.36439000  0.88908000  1
  In  In1  1  0.09599000  0.09415000  0.33073000  1
  In  In2  1  0.11547000  0.46939000  0.62531000  1
  In  In3  1  0.34891000  0.31693000  0.17985000  1
  In  In4  1  0.65109000  0.68307000  0.82015000  1
  In  In5  1  0.88453000  0.53061000  0.37469000  1
  In  In6  1  0.90401000  0.90585000  0.66927000  1
  In  In7  1  0.97769000  0.63561000  0.11092000  1
  P  P8  1  0.01010000  0.67960000  0.75263000  1
  P  P9  1  0.02320000  0.32070000  0.46043000  1
  P  P10  1  0.17000000  0.97880000  0.16743000  1
  P  P11  1  0.24640000  0.45810000  0.04670000  1
  P  P12  1  0.48580000  0.74030000  0.67197000  1
  P  P13  1  0.51420000  0.25970000  0.32803000  1
  P  P14  1  0.75360000  0.54190000  0.95330000  1
  P  P15  1  0.83000000  0.02120000  0.83257000  1
  P  P16  1  0.97680000  0.67930000  0.53957000  1
  P  P17  1  0.98990000  0.32040000  0.24737000  1
  H  H18  1  0.07800000  0.72800000  0.81300000  1
  H  H19  1  0.14200000  0.69600000  0.52200000  1
  H  H20  1  0.28680000  0.96640000  0.17030000  1
  H  H21  1  0.41200000  0.84500000  0.66100000  1
  H  H22  1  0.43900000  0.51900000  0.05800000  1
  H  H23  1  0.56100000  0.48100000  0.94200000  1
  H  H24  1  0.58800000  0.15500000  0.33900000  1
  H  H25  1  0.71320000  0.03360000  0.82970000  1
  H  H26  1  0.85800000  0.30400000  0.47800000  1
  H  H27  1  0.92200000  0.27200000  0.18700000  1
  C  C28  1  0.08170000  0.81770000  0.36510000  1
  C  C29  1  0.10730000  0.19530000  0.66240000  1
  C  C30  1  0.31550000  0.59350000  0.87010000  1
  C  C31  1  0.34450000  0.45520000  0.83000000  1
  C  C32  1  0.65550000  0.54480000  0.17000000  1
  C  C33  1  0.68450000  0.40650000  0.12990000  1
  C  C34  1  0.89270000  0.80470000  0.33760000  1
  C  C35  1  0.91830000  0.18230000  0.63490000  1
  O  O36  1  0.03610000  0.17590000  0.42550000  1
  O  O37  1  0.05180000  0.42650000  0.41550000  1
  O  O38  1  0.05760000  0.80040000  0.71670000  1
  O  O39  1  0.07420000  0.85250000  0.11680000  1
  O  O40  1  0.07940000  0.55500000  0.72480000  1
  O  O41  1  0.11320000  0.71130000  0.38110000  1
  O  O42  1  0.13680000  0.09000000  0.67970000  1
  O  O43  1  0.14270000  0.99190000  0.23660000  1
  O  O44  1  0.14530000  0.37610000  0.52610000  1
  O  O45  1  0.17070000  0.58160000  0.06090000  1
  O  O46  1  0.17700000  0.58310000  0.89470000  1
  O  O47  1  0.18320000  0.37460000  0.24520000  1
  O  O48  1  0.18400000  0.36810000  0.97600000  1
  O  O49  1  0.19180000  0.93480000  0.37040000  1
  O  O50  1  0.19780000  0.10900000  0.13900000  1
  O  O51  1  0.21790000  0.31120000  0.66480000  1
  O  O52  1  0.21950000  0.36740000  0.09830000  1
  O  O53  1  0.23640000  0.34030000  0.83160000  1
  O  O54  1  0.34460000  0.23510000  0.35740000  1
  O  O55  1  0.36230000  0.60630000  0.63010000  1
  O  O56  1  0.43440000  0.70510000  0.87640000  1
  O  O57  1  0.47360000  0.46710000  0.80010000  1
  O  O58  1  0.49370000  0.25700000  0.25420000  1
  O  O59  1  0.50630000  0.74300000  0.74580000  1
  O  O60  1  0.52640000  0.53290000  0.19990000  1
  O  O61  1  0.56560000  0.29490000  0.12360000  1
  O  O62  1  0.63770000  0.39370000  0.36990000  1
  O  O63  1  0.65540000  0.76490000  0.64260000  1
  O  O64  1  0.76360000  0.65970000  0.16840000  1
  O  O65  1  0.78050000  0.63260000  0.90170000  1
  O  O66  1  0.78210000  0.68880000  0.33520000  1
  O  O67  1  0.80220000  0.89100000  0.86100000  1
  O  O68  1  0.80820000  0.06520000  0.62960000  1
  O  O69  1  0.81600000  0.63190000  0.02400000  1
  O  O70  1  0.81680000  0.62540000  0.75480000  1
  O  O71  1  0.82300000  0.41690000  0.10530000  1
  O  O72  1  0.82930000  0.41840000  0.93910000  1
  O  O73  1  0.85470000  0.62390000  0.47390000  1
  O  O74  1  0.85730000  0.00810000  0.76340000  1
  O  O75  1  0.86320000  0.91000000  0.32030000  1
  O  O76  1  0.88680000  0.28870000  0.61890000  1
  O  O77  1  0.92060000  0.44500000  0.27520000  1
  O  O78  1  0.92580000  0.14750000  0.88320000  1
  O  O79  1  0.94240000  0.19960000  0.28330000  1
  O  O80  1  0.94820000  0.57350000  0.58450000  1
  O  O81  1  0.96390000  0.82410000  0.57450000  1
