# generated using pymatgen
data_Mg2H12C16N5O11
_symmetry_space_group_name_H-M   'P 1'
_cell_length_a   12.47400000
_cell_length_b   15.24800000
_cell_length_c   16.89900000
_cell_angle_alpha   90.00000000
_cell_angle_beta   90.00000000
_cell_angle_gamma   90.00000000
_symmetry_Int_Tables_number   1
_chemical_formula_structural   Mg2H12C16N5O11
_chemical_formula_sum   'Mg8 H48 C64 N20 O44'
_cell_volume   3214.24982525
_cell_formula_units_Z   4
loop_
 _symmetry_equiv_pos_site_id
 _symmetry_equiv_pos_as_xyz
  1  'x, y, z'
loop_
 _atom_site_type_symbol
 _atom_site_label
 _atom_site_symmetry_multiplicity
 _atom_site_fract_x
 _atom_site_fract_y
 _atom_site_fract_z
 _atom_site_occupancy
  Mg  Mg0  1  0.00000000  0.00000000  0.00000000  1
  Mg  Mg1  1  0.00000000  0.50000000  0.50000000  1
  Mg  Mg2  1  0.25000000  0.00000000  0.89148000  1
  Mg  Mg3  1  0.25000000  0.50000000  0.39148000  1
  Mg  Mg4  1  0.50000000  0.00000000  0.00000000  1
  Mg  Mg5  1  0.50000000  0.50000000  0.50000000  1
  Mg  Mg6  1  0.75000000  0.00000000  0.10852000  1
  Mg  Mg7  1  0.75000000  0.50000000  0.60852000  1
  H  H8  1  0.10220000  0.69170000  0.57000000  1
  H  H9  1  0.10220000  0.80830000  0.07000000  1
  H  H10  1  0.12310000  0.16070000  0.10350000  1
  H  H11  1  0.12310000  0.33930000  0.60350000  1
  H  H12  1  0.14900000  0.65570000  0.21730000  1
  H  H13  1  0.14900000  0.84430000  0.71730000  1
  H  H14  1  0.17850000  0.73870000  0.09560000  1
  H  H15  1  0.17850000  0.76130000  0.59560000  1
  H  H16  1  0.18150000  0.20560000  0.75990000  1
  H  H17  1  0.18150000  0.29440000  0.25990000  1
  H  H18  1  0.20470000  0.22200000  0.13650000  1
  H  H19  1  0.20470000  0.27800000  0.63650000  1
  H  H20  1  0.29530000  0.72200000  0.63650000  1
  H  H21  1  0.29530000  0.77800000  0.13650000  1
  H  H22  1  0.31850000  0.70560000  0.25990000  1
  H  H23  1  0.31850000  0.79440000  0.75990000  1
  H  H24  1  0.32150000  0.23870000  0.59560000  1
  H  H25  1  0.32150000  0.26130000  0.09560000  1
  H  H26  1  0.35100000  0.15570000  0.71730000  1
  H  H27  1  0.35100000  0.34430000  0.21730000  1
  H  H28  1  0.37690000  0.66070000  0.60350000  1
  H  H29  1  0.37690000  0.83930000  0.10350000  1
  H  H30  1  0.39780000  0.19170000  0.07000000  1
  H  H31  1  0.39780000  0.30830000  0.57000000  1
  H  H32  1  0.60220000  0.69170000  0.43000000  1
  H  H33  1  0.60220000  0.80830000  0.93000000  1
  H  H34  1  0.62310000  0.16070000  0.89650000  1
  H  H35  1  0.62310000  0.33930000  0.39650000  1
  H  H36  1  0.64900000  0.65570000  0.78270000  1
  H  H37  1  0.64900000  0.84430000  0.28270000  1
  H  H38  1  0.67850000  0.73870000  0.90440000  1
  H  H39  1  0.67850000  0.76130000  0.40440000  1
  H  H40  1  0.68150000  0.20560000  0.24010000  1
  H  H41  1  0.68150000  0.29440000  0.74010000  1
  H  H42  1  0.70470000  0.22200000  0.86350000  1
  H  H43  1  0.70470000  0.27800000  0.36350000  1
  H  H44  1  0.79530000  0.72200000  0.36350000  1
  H  H45  1  0.79530000  0.77800000  0.86350000  1
  H  H46  1  0.81850000  0.70560000  0.74010000  1
  H  H47  1  0.81850000  0.79440000  0.24010000  1
  H  H48  1  0.82150000  0.23870000  0.40440000  1
  H  H49  1  0.82150000  0.26130000  0.90440000  1
  H  H50  1  0.85100000  0.15570000  0.28270000  1
  H  H51  1  0.85100000  0.34430000  0.78270000  1
  H  H52  1  0.87690000  0.66070000  0.39650000  1
  H  H53  1  0.87690000  0.83930000  0.89650000  1
  H  H54  1  0.89780000  0.19170000  0.93000000  1
  H  H55  1  0.89780000  0.30830000  0.43000000  1
  C  C56  1  0.01300000  0.65950000  0.28250000  1
  C  C57  1  0.01300000  0.84050000  0.78250000  1
  C  C58  1  0.04790000  0.21210000  0.82870000  1
  C  C59  1  0.04790000  0.28790000  0.32870000  1
  C  C60  1  0.04860000  0.59080000  0.34190000  1
  C  C61  1  0.04860000  0.90920000  0.84190000  1
  C  C62  1  0.05550000  0.74940000  0.16740000  1
  C  C63  1  0.05550000  0.75060000  0.66740000  1
  C  C64  1  0.08300000  0.14050000  0.88460000  1
  C  C65  1  0.08300000  0.35950000  0.38460000  1
  C  C66  1  0.08300000  0.68370000  0.22170000  1
  C  C67  1  0.08300000  0.81630000  0.72170000  1
  C  C68  1  0.08390000  0.20380000  0.20890000  1
  C  C69  1  0.08390000  0.29620000  0.70890000  1
  C  C70  1  0.11540000  0.23340000  0.76500000  1
  C  C71  1  0.11540000  0.26660000  0.26500000  1
  C  C72  1  0.38460000  0.73340000  0.26500000  1
  C  C73  1  0.38460000  0.76660000  0.76500000  1
  C  C74  1  0.41610000  0.70380000  0.70890000  1
  C  C75  1  0.41610000  0.79620000  0.20890000  1
  C  C76  1  0.41700000  0.18370000  0.72170000  1
  C  C77  1  0.41700000  0.31630000  0.22170000  1
  C  C78  1  0.41700000  0.64050000  0.38460000  1
  C  C79  1  0.41700000  0.85950000  0.88460000  1
  C  C80  1  0.44450000  0.24940000  0.66740000  1
  C  C81  1  0.44450000  0.25060000  0.16740000  1
  C  C82  1  0.45140000  0.09080000  0.84190000  1
  C  C83  1  0.45140000  0.40920000  0.34190000  1
  C  C84  1  0.45210000  0.71210000  0.32870000  1
  C  C85  1  0.45210000  0.78790000  0.82870000  1
  C  C86  1  0.48700000  0.15950000  0.78250000  1
  C  C87  1  0.48700000  0.34050000  0.28250000  1
  C  C88  1  0.51300000  0.65950000  0.71750000  1
  C  C89  1  0.51300000  0.84050000  0.21750000  1
  C  C90  1  0.54790000  0.21210000  0.17130000  1
  C  C91  1  0.54790000  0.28790000  0.67130000  1
  C  C92  1  0.54860000  0.59080000  0.65810000  1
  C  C93  1  0.54860000  0.90920000  0.15810000  1
  C  C94  1  0.55550000  0.74940000  0.83260000  1
  C  C95  1  0.55550000  0.75060000  0.33260000  1
  C  C96  1  0.58300000  0.14050000  0.11540000  1
  C  C97  1  0.58300000  0.35950000  0.61540000  1
  C  C98  1  0.58300000  0.68370000  0.77830000  1
  C  C99  1  0.58300000  0.81630000  0.27830000  1
  C  C100  1  0.58390000  0.20380000  0.79110000  1
  C  C101  1  0.58390000  0.29620000  0.29110000  1
  C  C102  1  0.61540000  0.23340000  0.23500000  1
  C  C103  1  0.61540000  0.26660000  0.73500000  1
  C  C104  1  0.88460000  0.73340000  0.73500000  1
  C  C105  1  0.88460000  0.76660000  0.23500000  1
  C  C106  1  0.91610000  0.70380000  0.29110000  1
  C  C107  1  0.91610000  0.79620000  0.79110000  1
  C  C108  1  0.91700000  0.18370000  0.27830000  1
  C  C109  1  0.91700000  0.31630000  0.77830000  1
  C  C110  1  0.91700000  0.64050000  0.61540000  1
  C  C111  1  0.91700000  0.85950000  0.11540000  1
  C  C112  1  0.94450000  0.24940000  0.33260000  1
  C  C113  1  0.94450000  0.25060000  0.83260000  1
  C  C114  1  0.95140000  0.09080000  0.15810000  1
  C  C115  1  0.95140000  0.40920000  0.65810000  1
  C  C116  1  0.95210000  0.71210000  0.67130000  1
  C  C117  1  0.95210000  0.78790000  0.17130000  1
  C  C118  1  0.98700000  0.15950000  0.21750000  1
  C  C119  1  0.98700000  0.34050000  0.71750000  1
  N  N120  1  0.12030000  0.73220000  0.60280000  1
  N  N121  1  0.12030000  0.76780000  0.10280000  1
  N  N122  1  0.14490000  0.19430000  0.14110000  1
  N  N123  1  0.14490000  0.30570000  0.64110000  1
  N  N124  1  0.25000000  0.00000000  0.04200000  1
  N  N125  1  0.25000000  0.50000000  0.54200000  1
  N  N126  1  0.35510000  0.69430000  0.64110000  1
  N  N127  1  0.35510000  0.80570000  0.14110000  1
  N  N128  1  0.37970000  0.23220000  0.10280000  1
  N  N129  1  0.37970000  0.26780000  0.60280000  1
  N  N130  1  0.62030000  0.73220000  0.39720000  1
  N  N131  1  0.62030000  0.76780000  0.89720000  1
  N  N132  1  0.64490000  0.19430000  0.85890000  1
  N  N133  1  0.64490000  0.30570000  0.35890000  1
  N  N134  1  0.75000000  0.00000000  0.95800000  1
  N  N135  1  0.75000000  0.50000000  0.45800000  1
  N  N136  1  0.85510000  0.69430000  0.35890000  1
  N  N137  1  0.85510000  0.80570000  0.85890000  1
  N  N138  1  0.87970000  0.23220000  0.89720000  1
  N  N139  1  0.87970000  0.26780000  0.39720000  1
  O  O140  1  0.00390000  0.08640000  0.09520000  1
  O  O141  1  0.00390000  0.41360000  0.59520000  1
  O  O142  1  0.01580000  0.10390000  0.92580000  1
  O  O143  1  0.01580000  0.39610000  0.42580000  1
  O  O144  1  0.13210000  0.54910000  0.32290000  1
  O  O145  1  0.13210000  0.95090000  0.82290000  1
  O  O146  1  0.16170000  0.51350000  0.50360000  1
  O  O147  1  0.16170000  0.98650000  0.00360000  1
  O  O148  1  0.18060000  0.12160000  0.88470000  1
  O  O149  1  0.18060000  0.37840000  0.38470000  1
  O  O150  1  0.25000000  0.00000000  0.12160000  1
  O  O151  1  0.25000000  0.50000000  0.62160000  1
  O  O152  1  0.31940000  0.62160000  0.38470000  1
  O  O153  1  0.31940000  0.87840000  0.88470000  1
  O  O154  1  0.33830000  0.01350000  0.00360000  1
  O  O155  1  0.33830000  0.48650000  0.50360000  1
  O  O156  1  0.36790000  0.04910000  0.82290000  1
  O  O157  1  0.36790000  0.45090000  0.32290000  1
  O  O158  1  0.48420000  0.60390000  0.42580000  1
  O  O159  1  0.48420000  0.89610000  0.92580000  1
  O  O160  1  0.49610000  0.58640000  0.59520000  1
  O  O161  1  0.49610000  0.91360000  0.09520000  1
  O  O162  1  0.50390000  0.08640000  0.90480000  1
  O  O163  1  0.50390000  0.41360000  0.40480000  1
  O  O164  1  0.51580000  0.10390000  0.07420000  1
  O  O165  1  0.51580000  0.39610000  0.57420000  1
  O  O166  1  0.63210000  0.54910000  0.67710000  1
  O  O167  1  0.63210000  0.95090000  0.17710000  1
  O  O168  1  0.66170000  0.51350000  0.49640000  1
  O  O169  1  0.66170000  0.98650000  0.99640000  1
  O  O170  1  0.68060000  0.12160000  0.11530000  1
  O  O171  1  0.68060000  0.37840000  0.61530000  1
  O  O172  1  0.75000000  0.00000000  0.87840000  1
  O  O173  1  0.75000000  0.50000000  0.37840000  1
  O  O174  1  0.81940000  0.62160000  0.61530000  1
  O  O175  1  0.81940000  0.87840000  0.11530000  1
  O  O176  1  0.83830000  0.01350000  0.99640000  1
  O  O177  1  0.83830000  0.48650000  0.49640000  1
  O  O178  1  0.86790000  0.04910000  0.17710000  1
  O  O179  1  0.86790000  0.45090000  0.67710000  1
  O  O180  1  0.98420000  0.60390000  0.57420000  1
  O  O181  1  0.98420000  0.89610000  0.07420000  1
  O  O182  1  0.99610000  0.58640000  0.40480000  1
  O  O183  1  0.99610000  0.91360000  0.90480000  1
