# generated using pymatgen
data_Zn3H58C90(N2O3)4
_symmetry_space_group_name_H-M   'P 1'
_cell_length_a   21.00700000
_cell_length_b   21.09900000
_cell_length_c   21.24000000
_cell_angle_alpha   63.47700000
_cell_angle_beta   63.69100000
_cell_angle_gamma   84.66000000
_symmetry_Int_Tables_number   1
_chemical_formula_structural   Zn3H58C90(N2O3)4
_chemical_formula_sum   'Zn6 H116 C180 N16 O24'
_cell_volume   7486.02955218
_cell_formula_units_Z   2
loop_
 _symmetry_equiv_pos_site_id
 _symmetry_equiv_pos_as_xyz
  1  'x, y, z'
loop_
 _atom_site_type_symbol
 _atom_site_label
 _atom_site_symmetry_multiplicity
 _atom_site_fract_x
 _atom_site_fract_y
 _atom_site_fract_z
 _atom_site_occupancy
  Zn  Zn0  1  0.03820000  0.43734000  0.33950000  1
  Zn  Zn1  1  0.08608000  0.10995000  0.35064000  1
  Zn  Zn2  1  0.10117000  0.27385000  0.35989000  1
  Zn  Zn3  1  0.89883000  0.72615000  0.64011000  1
  Zn  Zn4  1  0.91392000  0.89005000  0.64936000  1
  Zn  Zn5  1  0.96180000  0.56266000  0.66050000  1
  H  H6  1  0.00000000  0.02310000  0.74390000  1
  H  H7  1  0.00000000  0.97690000  0.25610000  1
  H  H8  1  0.00390000  0.30800000  0.76110000  1
  H  H9  1  0.01430000  0.58170000  0.24300000  1
  H  H10  1  0.02990000  0.62310000  0.42830000  1
  H  H11  1  0.03010000  0.07170000  0.26750000  1
  H  H12  1  0.03400000  0.84790000  0.44110000  1
  H  H13  1  0.04190000  0.51340000  0.42830000  1
  H  H14  1  0.05900000  0.94660000  0.44820000  1
  H  H15  1  0.08170000  0.71260000  0.40470000  1
  H  H16  1  0.08780000  0.78490000  0.39900000  1
  H  H17  1  0.10400000  0.30090000  0.19550000  1
  H  H18  1  0.12340000  0.73610000  0.52950000  1
  H  H19  1  0.13140000  0.91580000  0.54610000  1
  H  H20  1  0.13320000  0.02250000  0.56910000  1
  H  H21  1  0.14970000  0.14900000  0.11300000  1
  H  H22  1  0.15350000  0.25250000  0.53300000  1
  H  H23  1  0.15680000  0.46620000  0.44020000  1
  H  H24  1  0.17040000  0.28620000  0.08140000  1
  H  H25  1  0.17400000  0.64140000  0.41590000  1
  H  H26  1  0.18800000  0.31570000  0.95360000  1
  H  H27  1  0.19360000  0.57730000  0.61610000  1
  H  H28  1  0.19450000  0.50770000  0.07500000  1
  H  H29  1  0.19590000  0.02330000  0.63630000  1
  H  H30  1  0.20520000  0.14900000  0.99620000  1
  H  H31  1  0.21000000  0.43890000  0.63780000  1
  H  H32  1  0.21420000  0.46980000  0.51240000  1
  H  H33  1  0.21550000  0.25850000  0.59610000  1
  H  H34  1  0.23280000  0.05460000  0.70080000  1
  H  H35  1  0.23560000  0.21580000  0.39610000  1
  H  H36  1  0.24560000  0.74710000  0.46940000  1
  H  H37  1  0.25080000  0.31060000  0.83490000  1
  H  H38  1  0.25470000  0.92860000  0.48410000  1
  H  H39  1  0.26390000  0.48750000  0.96750000  1
  H  H40  1  0.26590000  0.18150000  0.87450000  1
  H  H41  1  0.27270000  0.44070000  0.70320000  1
  H  H42  1  0.29750000  0.64680000  0.34630000  1
  H  H43  1  0.29920000  0.21650000  0.45810000  1
  H  H44  1  0.30590000  0.04710000  0.76160000  1
  H  H45  1  0.31680000  0.58700000  0.54350000  1
  H  H46  1  0.31720000  0.17410000  0.75780000  1
  H  H47  1  0.33020000  0.11590000  0.13500000  1
  H  H48  1  0.33020000  0.29800000  0.57740000  1
  H  H49  1  0.35540000  0.77840000  0.38550000  1
  H  H50  1  0.35920000  0.43360000  0.90220000  1
  H  H51  1  0.36460000  0.91480000  0.46270000  1
  H  H52  1  0.38490000  0.11460000  0.01650000  1
  H  H53  1  0.38650000  0.18600000  0.49370000  1
  H  H54  1  0.39420000  0.30050000  0.64210000  1
  H  H55  1  0.41200000  0.54390000  0.48640000  1
  H  H56  1  0.41330000  0.69600000  0.28830000  1
  H  H57  1  0.41710000  0.43270000  0.78360000  1
  H  H58  1  0.41720000  0.07870000  0.92560000  1
  H  H59  1  0.45370000  0.18950000  0.55140000  1
  H  H60  1  0.46440000  0.29790000  0.77720000  1
  H  H61  1  0.46550000  0.45190000  0.57950000  1
  H  H62  1  0.46670000  0.06710000  0.81250000  1
  H  H63  1  0.47460000  0.79600000  0.31660000  1
  H  H64  1  0.48640000  0.93200000  0.39640000  1
  H  H65  1  0.51360000  0.06800000  0.60360000  1
  H  H66  1  0.52540000  0.20400000  0.68340000  1
  H  H67  1  0.53330000  0.93290000  0.18750000  1
  H  H68  1  0.53450000  0.54810000  0.42050000  1
  H  H69  1  0.53560000  0.70210000  0.22280000  1
  H  H70  1  0.54630000  0.81050000  0.44860000  1
  H  H71  1  0.58280000  0.92130000  0.07440000  1
  H  H72  1  0.58290000  0.56730000  0.21640000  1
  H  H73  1  0.58670000  0.30400000  0.71170000  1
  H  H74  1  0.58800000  0.45610000  0.51360000  1
  H  H75  1  0.60580000  0.69950000  0.35790000  1
  H  H76  1  0.61350000  0.81400000  0.50630000  1
  H  H77  1  0.61510000  0.88540000  0.98350000  1
  H  H78  1  0.63540000  0.08520000  0.53730000  1
  H  H79  1  0.64080000  0.56640000  0.09780000  1
  H  H80  1  0.64460000  0.22160000  0.61450000  1
  H  H81  1  0.66980000  0.70200000  0.42260000  1
  H  H82  1  0.66980000  0.88410000  0.86500000  1
  H  H83  1  0.68280000  0.82590000  0.24220000  1
  H  H84  1  0.68320000  0.41300000  0.45650000  1
  H  H85  1  0.69410000  0.95290000  0.23840000  1
  H  H86  1  0.70080000  0.78350000  0.54190000  1
  H  H87  1  0.70250000  0.35320000  0.65370000  1
  H  H88  1  0.72730000  0.55930000  0.29680000  1
  H  H89  1  0.73410000  0.81850000  0.12550000  1
  H  H90  1  0.73610000  0.51250000  0.03250000  1
  H  H91  1  0.74530000  0.07140000  0.51590000  1
  H  H92  1  0.74920000  0.68940000  0.16510000  1
  H  H93  1  0.75440000  0.25290000  0.53060000  1
  H  H94  1  0.76440000  0.78420000  0.60390000  1
  H  H95  1  0.76720000  0.94540000  0.29920000  1
  H  H96  1  0.78450000  0.74150000  0.40390000  1
  H  H97  1  0.78580000  0.53020000  0.48760000  1
  H  H98  1  0.79000000  0.56110000  0.36220000  1
  H  H99  1  0.79480000  0.85100000  0.00380000  1
  H  H100  1  0.80410000  0.97670000  0.36370000  1
  H  H101  1  0.80550000  0.49230000  0.92500000  1
  H  H102  1  0.80640000  0.42270000  0.38390000  1
  H  H103  1  0.81200000  0.68430000  0.04640000  1
  H  H104  1  0.82600000  0.35860000  0.58410000  1
  H  H105  1  0.82960000  0.71380000  0.91860000  1
  H  H106  1  0.84320000  0.53380000  0.55980000  1
  H  H107  1  0.84650000  0.74750000  0.46700000  1
  H  H108  1  0.85030000  0.85100000  0.88700000  1
  H  H109  1  0.86680000  0.97750000  0.43090000  1
  H  H110  1  0.86860000  0.08420000  0.45390000  1
  H  H111  1  0.87660000  0.26390000  0.47050000  1
  H  H112  1  0.89600000  0.69910000  0.80450000  1
  H  H113  1  0.91220000  0.21510000  0.60100000  1
  H  H114  1  0.91830000  0.28740000  0.59530000  1
  H  H115  1  0.94100000  0.05340000  0.55180000  1
  H  H116  1  0.95810000  0.48660000  0.57170000  1
  H  H117  1  0.96600000  0.15210000  0.55890000  1
  H  H118  1  0.96990000  0.92830000  0.73250000  1
  H  H119  1  0.97010000  0.37690000  0.57170000  1
  H  H120  1  0.98570000  0.41830000  0.75700000  1
  H  H121  1  0.99610000  0.69200000  0.23890000  1
  C  C122  1  0.00020000  0.15960000  0.66400000  1
  C  C123  1  0.00240000  0.25710000  0.67060000  1
  C  C124  1  0.00640000  0.65680000  0.27800000  1
  C  C125  1  0.01090000  0.67080000  0.33350000  1
  C  C126  1  0.01320000  0.96950000  0.29510000  1
  C  C127  1  0.01560000  0.90050000  0.34800000  1
  C  C128  1  0.01720000  0.59030000  0.28100000  1
  C  C129  1  0.02570000  0.61630000  0.39000000  1
  C  C130  1  0.03080000  0.02570000  0.30300000  1
  C  C131  1  0.03270000  0.89300000  0.40460000  1
  C  C132  1  0.03410000  0.55060000  0.38850000  1
  C  C133  1  0.03550000  0.81410000  0.58850000  1
  C  C134  1  0.04830000  0.95330000  0.40780000  1
  C  C135  1  0.09170000  0.59690000  0.57030000  1
  C  C136  1  0.10150000  0.41220000  0.22310000  1
  C  C137  1  0.11410000  0.82390000  0.54640000  1
  C  C138  1  0.11600000  0.35720000  0.43120000  1
  C  C139  1  0.13580000  0.33890000  0.14940000  1
  C  C140  1  0.13820000  0.11780000  0.43270000  1
  C  C141  1  0.14380000  0.40400000  0.14870000  1
  C  C142  1  0.14970000  0.35910000  0.47990000  1
  C  C143  1  0.14970000  0.77460000  0.52120000  1
  C  C144  1  0.15440000  0.88150000  0.53090000  1
  C  C145  1  0.16650000  0.06160000  0.54740000  1
  C  C146  1  0.16650000  0.29640000  0.52740000  1
  C  C147  1  0.16770000  0.42440000  0.47260000  1
  C  C148  1  0.17120000  0.60600000  0.52250000  1
  C  C149  1  0.17570000  0.32990000  0.08060000  1
  C  C150  1  0.17740000  0.11950000  0.47590000  1
  C  C151  1  0.19060000  0.46290000  0.07780000  1
  C  C152  1  0.19740000  0.13300000  0.21670000  1
  C  C153  1  0.19790000  0.14270000  0.09380000  1
  C  C154  1  0.20230000  0.62880000  0.44210000  1
  C  C155  1  0.20280000  0.30040000  0.56580000  1
  C  C156  1  0.20320000  0.42650000  0.51530000  1
  C  C157  1  0.20470000  0.06110000  0.58740000  1
  C  C158  1  0.21410000  0.59070000  0.56250000  1
  C  C159  1  0.22140000  0.36410000  0.56150000  1
  C  C160  1  0.22290000  0.78160000  0.48440000  1
  C  C161  1  0.22330000  0.38770000  0.01110000  1
  C  C162  1  0.22790000  0.17680000  0.44380000  1
  C  C163  1  0.22870000  0.88950000  0.49310000  1
  C  C164  1  0.23020000  0.45050000  0.01290000  1
  C  C165  1  0.23100000  0.14190000  0.02440000  1
  C  C166  1  0.23390000  0.13410000  0.13900000  1
  C  C167  1  0.23410000  0.33990000  0.91920000  1
  C  C168  1  0.24620000  0.41010000  0.63950000  1
  C  C169  1  0.25770000  0.12100000  0.55030000  1
  C  C170  1  0.26210000  0.36550000  0.60250000  1
  C  C171  1  0.26440000  0.84030000  0.46890000  1
  C  C172  1  0.26490000  0.37920000  0.93930000  1
  C  C173  1  0.26610000  0.17700000  0.48080000  1
  C  C174  1  0.27210000  0.33660000  0.84780000  1
  C  C175  1  0.27670000  0.63280000  0.40010000  1
  C  C176  1  0.27850000  0.08010000  0.67010000  1
  C  C177  1  0.28410000  0.41150000  0.67840000  1
  C  C178  1  0.28750000  0.59650000  0.51880000  1
  C  C179  1  0.30130000  0.13090000  0.99220000  1
  C  C180  1  0.30200000  0.11940000  0.58990000  1
  C  C181  1  0.30410000  0.12290000  0.10720000  1
  C  C182  1  0.30660000  0.15880000  0.86240000  1
  C  C183  1  0.31780000  0.32630000  0.60330000  1
  C  C184  1  0.31860000  0.61640000  0.43750000  1
  C  C185  1  0.32100000  0.07680000  0.70810000  1
  C  C186  1  0.33580000  0.12880000  0.91580000  1
  C  C187  1  0.33580000  0.41070000  0.88820000  1
  C  C188  1  0.33700000  0.12180000  0.03600000  1
  C  C189  1  0.33780000  0.15490000  0.79220000  1
  C  C190  1  0.33810000  0.37040000  0.68090000  1
  C  C191  1  0.34080000  0.37160000  0.79620000  1
  C  C192  1  0.34410000  0.84780000  0.42840000  1
  C  C193  1  0.35670000  0.32770000  0.64220000  1
  C  C194  1  0.36870000  0.15900000  0.54800000  1
  C  C195  1  0.37100000  0.40850000  0.81800000  1
  C  C196  1  0.38130000  0.81140000  0.38610000  1
  C  C197  1  0.38700000  0.12080000  0.66040000  1
  C  C198  1  0.38700000  0.89150000  0.43180000  1
  C  C199  1  0.39580000  0.09760000  0.89210000  1
  C  C200  1  0.39790000  0.12330000  0.77230000  1
  C  C201  1  0.39900000  0.62140000  0.39240000  1
  C  C202  1  0.40970000  0.16070000  0.58220000  1
  C  C203  1  0.42720000  0.09160000  0.82380000  1
  C  C204  1  0.43680000  0.57560000  0.43320000  1
  C  C205  1  0.43720000  0.66610000  0.31580000  1
  C  C206  1  0.45240000  0.82080000  0.34580000  1
  C  C207  1  0.45360000  0.37610000  0.68320000  1
  C  C208  1  0.46000000  0.90210000  0.39250000  1
  C  C209  1  0.48940000  0.33020000  0.72420000  1
  C  C210  1  0.48990000  0.42180000  0.60640000  1
  C  C211  1  0.49370000  0.86770000  0.34710000  1
  C  C212  1  0.50630000  0.13230000  0.65290000  1
  C  C213  1  0.51010000  0.57820000  0.39360000  1
  C  C214  1  0.51060000  0.66980000  0.27580000  1
  C  C215  1  0.54000000  0.09790000  0.60750000  1
  C  C216  1  0.54640000  0.62390000  0.31680000  1
  C  C217  1  0.54760000  0.17920000  0.65420000  1
  C  C218  1  0.56280000  0.33390000  0.68420000  1
  C  C219  1  0.56320000  0.42440000  0.56680000  1
  C  C220  1  0.57280000  0.90840000  0.17620000  1
  C  C221  1  0.59030000  0.83930000  0.41780000  1
  C  C222  1  0.60100000  0.37860000  0.60760000  1
  C  C223  1  0.60210000  0.87670000  0.22770000  1
  C  C224  1  0.60420000  0.90240000  0.10790000  1
  C  C225  1  0.61300000  0.10850000  0.56820000  1
  C  C226  1  0.61300000  0.87920000  0.33960000  1
  C  C227  1  0.61870000  0.18860000  0.61390000  1
  C  C228  1  0.62900000  0.59150000  0.18200000  1
  C  C229  1  0.63130000  0.84100000  0.45200000  1
  C  C230  1  0.64330000  0.67230000  0.35780000  1
  C  C231  1  0.65590000  0.15220000  0.57160000  1
  C  C232  1  0.65920000  0.62840000  0.20380000  1
  C  C233  1  0.66190000  0.62960000  0.31910000  1
  C  C234  1  0.66220000  0.84510000  0.20780000  1
  C  C235  1  0.66300000  0.87820000  0.96400000  1
  C  C236  1  0.66420000  0.58930000  0.11180000  1
  C  C237  1  0.66420000  0.87120000  0.08420000  1
  C  C238  1  0.67900000  0.92320000  0.29190000  1
  C  C239  1  0.68140000  0.38360000  0.56250000  1
  C  C240  1  0.68220000  0.67370000  0.39670000  1
  C  C241  1  0.69340000  0.84120000  0.13760000  1
  C  C242  1  0.69590000  0.87710000  0.89280000  1
  C  C243  1  0.69800000  0.88060000  0.41010000  1
  C  C244  1  0.69870000  0.86910000  0.00780000  1
  C  C245  1  0.71250000  0.40350000  0.48120000  1
  C  C246  1  0.71590000  0.58850000  0.32160000  1
  C  C247  1  0.72150000  0.91990000  0.32990000  1
  C  C248  1  0.72330000  0.36720000  0.59990000  1
  C  C249  1  0.72790000  0.66340000  0.15220000  1
  C  C250  1  0.73390000  0.82300000  0.51920000  1
  C  C251  1  0.73510000  0.62080000  0.06070000  1
  C  C252  1  0.73560000  0.15970000  0.53110000  1
  C  C253  1  0.73790000  0.63450000  0.39750000  1
  C  C254  1  0.74230000  0.87900000  0.44970000  1
  C  C255  1  0.75380000  0.58990000  0.36050000  1
  C  C256  1  0.76590000  0.66010000  0.08080000  1
  C  C257  1  0.76610000  0.86590000  0.86100000  1
  C  C258  1  0.76900000  0.85810000  0.97560000  1
  C  C259  1  0.76980000  0.54950000  0.98710000  1
  C  C260  1  0.77130000  0.11050000  0.50690000  1
  C  C261  1  0.77210000  0.82320000  0.55620000  1
  C  C262  1  0.77670000  0.61230000  0.98890000  1
  C  C263  1  0.77710000  0.21840000  0.51560000  1
  C  C264  1  0.77860000  0.63590000  0.43850000  1
  C  C265  1  0.78590000  0.40930000  0.43750000  1
  C  C266  1  0.79530000  0.93890000  0.41260000  1
  C  C267  1  0.79680000  0.57350000  0.48470000  1
  C  C268  1  0.79720000  0.69960000  0.43420000  1
  C  C269  1  0.79770000  0.37120000  0.55790000  1
  C  C270  1  0.80210000  0.85730000  0.90620000  1
  C  C271  1  0.80260000  0.86700000  0.78330000  1
  C  C272  1  0.80940000  0.53710000  0.92220000  1
  C  C273  1  0.82260000  0.88050000  0.52410000  1
  C  C274  1  0.82430000  0.67010000  0.91940000  1
  C  C275  1  0.82880000  0.39400000  0.47750000  1
  C  C276  1  0.83230000  0.57560000  0.52740000  1
  C  C277  1  0.83350000  0.70360000  0.47260000  1
  C  C278  1  0.83350000  0.93840000  0.45260000  1
  C  C279  1  0.84560000  0.11850000  0.46910000  1
  C  C280  1  0.85030000  0.22540000  0.47880000  1
  C  C281  1  0.85030000  0.64090000  0.52010000  1
  C  C282  1  0.85620000  0.59600000  0.85130000  1
  C  C283  1  0.86180000  0.88220000  0.56730000  1
  C  C284  1  0.86420000  0.66110000  0.85060000  1
  C  C285  1  0.88400000  0.64280000  0.56880000  1
  C  C286  1  0.88590000  0.17610000  0.45360000  1
  C  C287  1  0.89850000  0.58780000  0.77690000  1
  C  C288  1  0.90830000  0.40310000  0.42970000  1
  C  C289  1  0.95170000  0.04670000  0.59220000  1
  C  C290  1  0.96450000  0.18590000  0.41150000  1
  C  C291  1  0.96590000  0.44940000  0.61150000  1
  C  C292  1  0.96730000  0.10700000  0.59540000  1
  C  C293  1  0.96920000  0.97430000  0.69700000  1
  C  C294  1  0.97430000  0.38370000  0.61000000  1
  C  C295  1  0.98280000  0.40970000  0.71900000  1
  C  C296  1  0.98440000  0.09950000  0.65200000  1
  C  C297  1  0.98680000  0.03050000  0.70490000  1
  C  C298  1  0.98910000  0.32920000  0.66650000  1
  C  C299  1  0.99360000  0.34320000  0.72200000  1
  C  C300  1  0.99760000  0.74290000  0.32940000  1
  C  C301  1  0.99980000  0.84040000  0.33600000  1
  N  N302  1  0.02230000  0.77590000  0.35880000  1
  N  N303  1  0.03160000  0.53820000  0.33490000  1
  N  N304  1  0.03560000  0.21570000  0.70800000  1
  N  N305  1  0.03610000  0.15230000  0.70350000  1
  N  N306  1  0.04930000  0.01810000  0.35940000  1
  N  N307  1  0.07010000  0.75510000  0.39180000  1
  N  N308  1  0.37560000  0.36980000  0.72250000  1
  N  N309  1  0.42890000  0.12140000  0.69630000  1
  N  N310  1  0.57110000  0.87860000  0.30370000  1
  N  N311  1  0.62440000  0.63020000  0.27750000  1
  N  N312  1  0.92990000  0.24490000  0.60820000  1
  N  N313  1  0.95070000  0.98190000  0.64060000  1
  N  N314  1  0.96390000  0.84770000  0.29650000  1
  N  N315  1  0.96440000  0.78430000  0.29200000  1
  N  N316  1  0.96840000  0.46180000  0.66510000  1
  N  N317  1  0.97770000  0.22410000  0.64120000  1
  O  O318  1  0.00124000  0.76970000  0.58570000  1
  O  O319  1  0.00632000  0.85160000  0.62440000  1
  O  O320  1  0.05219000  0.61380000  0.53600000  1
  O  O321  1  0.06586000  0.57190000  0.64370000  1
  O  O322  1  0.06935000  0.35770000  0.28790000  1
  O  O323  1  0.09721000  0.29558000  0.44280000  1
  O  O324  1  0.09951000  0.47420000  0.21720000  1
  O  O325  1  0.10791000  0.06100000  0.44870000  1
  O  O326  1  0.10961000  0.41580000  0.38270000  1
  O  O327  1  0.13710000  0.15880000  0.23260000  1
  O  O328  1  0.13731000  0.17730000  0.37560000  1
  O  O329  1  0.22060000  0.10370000  0.26540000  1
  O  O330  1  0.77940000  0.89630000  0.73460000  1
  O  O331  1  0.86269000  0.82270000  0.62440000  1
  O  O332  1  0.86290000  0.84120000  0.76740000  1
  O  O333  1  0.89039000  0.58420000  0.61730000  1
  O  O334  1  0.89209000  0.93900000  0.55130000  1
  O  O335  1  0.90049000  0.52580000  0.78280000  1
  O  O336  1  0.90279000  0.70442000  0.55720000  1
  O  O337  1  0.93065000  0.64230000  0.71210000  1
  O  O338  1  0.93414000  0.42810000  0.35630000  1
  O  O339  1  0.94781000  0.38620000  0.46400000  1
  O  O340  1  0.99368000  0.14840000  0.37560000  1
  O  O341  1  0.99876000  0.23030000  0.41430000  1
