# generated using pymatgen
data_NiH8C10NO5
_symmetry_space_group_name_H-M   'P 1'
_cell_length_a   6.68560000
_cell_length_b   7.63770000
_cell_length_c   26.99670000
_cell_angle_alpha   90.00000000
_cell_angle_beta   90.00000000
_cell_angle_gamma   90.00000000
_symmetry_Int_Tables_number   1
_chemical_formula_structural   NiH8C10NO5
_chemical_formula_sum   'Ni4 H32 C40 N4 O20'
_cell_volume   1378.52188564
_cell_formula_units_Z   4
loop_
 _symmetry_equiv_pos_site_id
 _symmetry_equiv_pos_as_xyz
  1  'x, y, z'
loop_
 _atom_site_type_symbol
 _atom_site_label
 _atom_site_symmetry_multiplicity
 _atom_site_fract_x
 _atom_site_fract_y
 _atom_site_fract_z
 _atom_site_occupancy
  Ni  Ni0  1  0.99965000  0.74604000  0.21758000  1
  Ni  Ni1  1  0.50035000  0.25396000  0.71758000  1
  Ni  Ni2  1  0.49965000  0.25396000  0.28242000  1
  Ni  Ni3  1  0.00035000  0.74604000  0.78242000  1
  H  H4  1  0.99240000  0.59510000  0.65140000  1
  H  H5  1  0.96770000  0.62610000  0.89020000  1
  H  H6  1  0.91730000  0.17480000  0.68210000  1
  H  H7  1  0.90420000  0.87110000  0.35890000  1
  H  H8  1  0.88840000  0.19630000  0.38650000  1
  H  H9  1  0.85390000  0.61900000  0.03870000  1
  H  H10  1  0.83050000  0.28810000  0.47170000  1
  H  H11  1  0.78680000  0.24420000  0.85240000  1
  H  H12  1  0.71320000  0.75580000  0.35240000  1
  H  H13  1  0.66950000  0.71190000  0.97170000  1
  H  H14  1  0.64610000  0.38100000  0.53870000  1
  H  H15  1  0.61160000  0.80370000  0.88650000  1
  H  H16  1  0.59580000  0.12890000  0.85890000  1
  H  H17  1  0.58270000  0.82520000  0.18210000  1
  H  H18  1  0.53230000  0.37390000  0.39020000  1
  H  H19  1  0.50760000  0.40490000  0.15140000  1
  H  H20  1  0.49240000  0.40490000  0.84860000  1
  H  H21  1  0.46770000  0.37390000  0.60980000  1
  H  H22  1  0.41730000  0.82520000  0.81790000  1
  H  H23  1  0.40420000  0.12890000  0.14110000  1
  H  H24  1  0.38840000  0.80370000  0.11350000  1
  H  H25  1  0.35390000  0.38100000  0.46130000  1
  H  H26  1  0.33050000  0.71190000  0.02830000  1
  H  H27  1  0.28680000  0.75580000  0.64760000  1
  H  H28  1  0.21320000  0.24420000  0.14760000  1
  H  H29  1  0.16950000  0.28810000  0.52830000  1
  H  H30  1  0.14610000  0.61900000  0.96130000  1
  H  H31  1  0.11160000  0.19630000  0.61350000  1
  H  H32  1  0.09580000  0.87110000  0.64110000  1
  H  H33  1  0.08270000  0.17480000  0.31790000  1
  H  H34  1  0.03230000  0.62610000  0.10980000  1
  H  H35  1  0.00760000  0.59510000  0.34860000  1
  C  C36  1  0.97780000  0.22880000  0.61150000  1
  C  C37  1  0.96810000  0.28690000  0.47670000  1
  C  C38  1  0.95470000  0.65410000  0.31910000  1
  C  C39  1  0.90430000  0.28520000  0.56780000  1
  C  C40  1  0.90170000  0.66790000  0.11020000  1
  C  C41  1  0.86080000  0.21810000  0.65310000  1
  C  C42  1  0.82830000  0.80320000  0.33510000  1
  C  C43  1  0.82680000  0.52080000  0.28880000  1
  C  C44  1  0.79510000  0.66000000  0.06770000  1
  C  C45  1  0.75260000  0.92670000  0.29610000  1
  C  C46  1  0.74740000  0.07330000  0.79610000  1
  C  C47  1  0.70490000  0.34000000  0.56770000  1
  C  C48  1  0.67320000  0.47920000  0.78880000  1
  C  C49  1  0.67170000  0.19680000  0.83510000  1
  C  C50  1  0.63920000  0.78190000  0.15310000  1
  C  C51  1  0.59830000  0.33210000  0.61020000  1
  C  C52  1  0.59570000  0.71480000  0.06780000  1
  C  C53  1  0.54530000  0.34590000  0.81910000  1
  C  C54  1  0.53190000  0.71310000  0.97670000  1
  C  C55  1  0.52220000  0.77120000  0.11150000  1
  C  C56  1  0.47780000  0.77120000  0.88850000  1
  C  C57  1  0.46810000  0.71310000  0.02330000  1
  C  C58  1  0.45470000  0.34590000  0.18090000  1
  C  C59  1  0.40430000  0.71480000  0.93220000  1
  C  C60  1  0.40170000  0.33210000  0.38980000  1
  C  C61  1  0.36080000  0.78190000  0.84690000  1
  C  C62  1  0.32830000  0.19680000  0.16490000  1
  C  C63  1  0.32680000  0.47920000  0.21120000  1
  C  C64  1  0.29510000  0.34000000  0.43230000  1
  C  C65  1  0.25260000  0.07330000  0.20390000  1
  C  C66  1  0.24740000  0.92670000  0.70390000  1
  C  C67  1  0.20490000  0.66000000  0.93230000  1
  C  C68  1  0.17320000  0.52080000  0.71120000  1
  C  C69  1  0.17170000  0.80320000  0.66490000  1
  C  C70  1  0.13920000  0.21810000  0.34690000  1
  C  C71  1  0.09830000  0.66790000  0.88980000  1
  C  C72  1  0.09570000  0.28520000  0.43220000  1
  C  C73  1  0.04530000  0.65410000  0.68090000  1
  C  C74  1  0.03190000  0.28690000  0.52330000  1
  C  C75  1  0.02220000  0.22880000  0.38850000  1
  N  N76  1  0.82950000  0.73310000  0.15360000  1
  N  N77  1  0.67050000  0.26690000  0.65360000  1
  N  N78  1  0.32950000  0.26690000  0.34640000  1
  N  N79  1  0.17050000  0.73310000  0.84640000  1
  O  O80  1  0.88240000  0.71930000  0.70940000  1
  O  O81  1  0.84940000  0.52590000  0.24240000  1
  O  O82  1  0.84920000  0.94830000  0.81280000  1
  O  O83  1  0.79110000  0.90430000  0.25130000  1
  O  O84  1  0.78420000  0.58000000  0.81200000  1
  O  O85  1  0.71580000  0.42000000  0.31200000  1
  O  O86  1  0.70890000  0.09570000  0.75130000  1
  O  O87  1  0.65080000  0.05170000  0.31280000  1
  O  O88  1  0.65060000  0.47410000  0.74240000  1
  O  O89  1  0.61760000  0.28070000  0.20940000  1
  O  O90  1  0.38240000  0.28070000  0.79060000  1
  O  O91  1  0.34940000  0.47410000  0.25760000  1
  O  O92  1  0.34920000  0.05170000  0.68720000  1
  O  O93  1  0.29110000  0.09570000  0.24870000  1
  O  O94  1  0.28420000  0.42000000  0.68800000  1
  O  O95  1  0.21580000  0.58000000  0.18800000  1
  O  O96  1  0.20890000  0.90430000  0.74870000  1
  O  O97  1  0.15080000  0.94830000  0.18720000  1
  O  O98  1  0.15060000  0.52590000  0.75760000  1
  O  O99  1  0.11760000  0.71930000  0.29060000  1
