# generated using pymatgen
data_NiH6(C3O2)6
_symmetry_space_group_name_H-M   'P 1'
_cell_length_a   11.19180000
_cell_length_b   11.19180000
_cell_length_c   31.56100000
_cell_angle_alpha   90.00000000
_cell_angle_beta   90.00000000
_cell_angle_gamma   90.00000000
_symmetry_Int_Tables_number   1
_chemical_formula_structural   NiH6(C3O2)6
_chemical_formula_sum   'Ni4 H24 C72 O48'
_cell_volume   3953.21683768
_cell_formula_units_Z   4
loop_
 _symmetry_equiv_pos_site_id
 _symmetry_equiv_pos_as_xyz
  1  'x, y, z'
loop_
 _atom_site_type_symbol
 _atom_site_label
 _atom_site_symmetry_multiplicity
 _atom_site_fract_x
 _atom_site_fract_y
 _atom_site_fract_z
 _atom_site_occupancy
  Ni  Ni0  1  0.19934000  0.19934000  0.50000000  1
  Ni  Ni1  1  0.30066000  0.69934000  0.25000000  1
  Ni  Ni2  1  0.69934000  0.30066000  0.75000000  1
  Ni  Ni3  1  0.80066000  0.80066000  0.00000000  1
  H  H4  1  0.01190000  0.82410000  0.11470000  1
  H  H5  1  0.03150000  0.24070000  0.82120000  1
  H  H6  1  0.04120000  0.17230000  0.08490000  1
  H  H7  1  0.17230000  0.04120000  0.91510000  1
  H  H8  1  0.17590000  0.98810000  0.38530000  1
  H  H9  1  0.24070000  0.03150000  0.17880000  1
  H  H10  1  0.25930000  0.53150000  0.57120000  1
  H  H11  1  0.32410000  0.48810000  0.36470000  1
  H  H12  1  0.32770000  0.54120000  0.83490000  1
  H  H13  1  0.45880000  0.67230000  0.66510000  1
  H  H14  1  0.46850000  0.74070000  0.92880000  1
  H  H15  1  0.48810000  0.32410000  0.63530000  1
  H  H16  1  0.51190000  0.67590000  0.13530000  1
  H  H17  1  0.53150000  0.25930000  0.42880000  1
  H  H18  1  0.54120000  0.32770000  0.16510000  1
  H  H19  1  0.67230000  0.45880000  0.33490000  1
  H  H20  1  0.67590000  0.51190000  0.86470000  1
  H  H21  1  0.74070000  0.46850000  0.07120000  1
  H  H22  1  0.75930000  0.96850000  0.67880000  1
  H  H23  1  0.82410000  0.01190000  0.88530000  1
  H  H24  1  0.82770000  0.95880000  0.41510000  1
  H  H25  1  0.95880000  0.82770000  0.58490000  1
  H  H26  1  0.96850000  0.75930000  0.32120000  1
  H  H27  1  0.98810000  0.17590000  0.61470000  1
  C  C28  1  0.00500000  0.98650000  0.40600000  1
  C  C29  1  0.01350000  0.99500000  0.09400000  1
  C  C30  1  0.02230000  0.18320000  0.84225000  1
  C  C31  1  0.02490000  0.07770000  0.44023000  1
  C  C32  1  0.04640000  0.89850000  0.11942000  1
  C  C33  1  0.06460000  0.10680000  0.10104000  1
  C  C34  1  0.07770000  0.02490000  0.55977000  1
  C  C35  1  0.08810000  0.86990000  0.34828000  1
  C  C36  1  0.10150000  0.95360000  0.38058000  1
  C  C37  1  0.10680000  0.06460000  0.89896000  1
  C  C38  1  0.11990000  0.15160000  0.86729000  1
  C  C39  1  0.13010000  0.91190000  0.15172000  1
  C  C40  1  0.15160000  0.11990000  0.13271000  1
  C  C41  1  0.15800000  0.80710000  0.18004000  1
  C  C42  1  0.18320000  0.02230000  0.15775000  1
  C  C43  1  0.19290000  0.84200000  0.31996000  1
  C  C44  1  0.20700000  0.24090000  0.13934000  1
  C  C45  1  0.24090000  0.20700000  0.86066000  1
  C  C46  1  0.25910000  0.70700000  0.88934000  1
  C  C47  1  0.29300000  0.74090000  0.61066000  1
  C  C48  1  0.30710000  0.34200000  0.43004000  1
  C  C49  1  0.31680000  0.52230000  0.59225000  1
  C  C50  1  0.34200000  0.30710000  0.56996000  1
  C  C51  1  0.34840000  0.61990000  0.61729000  1
  C  C52  1  0.36990000  0.41190000  0.59828000  1
  C  C53  1  0.38010000  0.65160000  0.88271000  1
  C  C54  1  0.39320000  0.56460000  0.85104000  1
  C  C55  1  0.39850000  0.45360000  0.36942000  1
  C  C56  1  0.41190000  0.36990000  0.40172000  1
  C  C57  1  0.42230000  0.52490000  0.19023000  1
  C  C58  1  0.43540000  0.60680000  0.64896000  1
  C  C59  1  0.45360000  0.39850000  0.63058000  1
  C  C60  1  0.47510000  0.57770000  0.30977000  1
  C  C61  1  0.47770000  0.68320000  0.90775000  1
  C  C62  1  0.48650000  0.49500000  0.65600000  1
  C  C63  1  0.49500000  0.48650000  0.34400000  1
  C  C64  1  0.50500000  0.51350000  0.84400000  1
  C  C65  1  0.51350000  0.50500000  0.15600000  1
  C  C66  1  0.52230000  0.31680000  0.40775000  1
  C  C67  1  0.52490000  0.42230000  0.80977000  1
  C  C68  1  0.54640000  0.60150000  0.13058000  1
  C  C69  1  0.56460000  0.39320000  0.14896000  1
  C  C70  1  0.57770000  0.47510000  0.69023000  1
  C  C71  1  0.58810000  0.63010000  0.90172000  1
  C  C72  1  0.60150000  0.54640000  0.86942000  1
  C  C73  1  0.60680000  0.43540000  0.35104000  1
  C  C74  1  0.61990000  0.34840000  0.38271000  1
  C  C75  1  0.63010000  0.58810000  0.09828000  1
  C  C76  1  0.65160000  0.38010000  0.11729000  1
  C  C77  1  0.65800000  0.69290000  0.06996000  1
  C  C78  1  0.68320000  0.47770000  0.09225000  1
  C  C79  1  0.69290000  0.65800000  0.93004000  1
  C  C80  1  0.70700000  0.25910000  0.11066000  1
  C  C81  1  0.74090000  0.29300000  0.38934000  1
  C  C82  1  0.75910000  0.79300000  0.36066000  1
  C  C83  1  0.79300000  0.75910000  0.63934000  1
  C  C84  1  0.80710000  0.15800000  0.81996000  1
  C  C85  1  0.81680000  0.97770000  0.65775000  1
  C  C86  1  0.84200000  0.19290000  0.68004000  1
  C  C87  1  0.84840000  0.88010000  0.63271000  1
  C  C88  1  0.86990000  0.08810000  0.65172000  1
  C  C89  1  0.88010000  0.84840000  0.36729000  1
  C  C90  1  0.89320000  0.93540000  0.39896000  1
  C  C91  1  0.89850000  0.04640000  0.88058000  1
  C  C92  1  0.91190000  0.13010000  0.84828000  1
  C  C93  1  0.92230000  0.97510000  0.05977000  1
  C  C94  1  0.93540000  0.89320000  0.60104000  1
  C  C95  1  0.95360000  0.10150000  0.61942000  1
  C  C96  1  0.97510000  0.92230000  0.94023000  1
  C  C97  1  0.97770000  0.81680000  0.34225000  1
  C  C98  1  0.98650000  0.00500000  0.59400000  1
  C  C99  1  0.99500000  0.01350000  0.90600000  1
  O  O100  1  0.06167000  0.85711000  0.95190000  1
  O  O101  1  0.08475000  0.12941000  0.54521000  1
  O  O102  1  0.09362000  0.71579000  0.17613000  1
  O  O103  1  0.12941000  0.08475000  0.45479000  1
  O  O104  1  0.14289000  0.93833000  0.54810000  1
  O  O105  1  0.17202000  0.68000000  0.86923000  1
  O  O106  1  0.17939000  0.75767000  0.29382000  1
  O  O107  1  0.18000000  0.32798000  0.11923000  1
  O  O108  1  0.21080000  0.73950000  0.58064000  1
  O  O109  1  0.21579000  0.40638000  0.42613000  1
  O  O110  1  0.23950000  0.28920000  0.83064000  1
  O  O111  1  0.24233000  0.82061000  0.20618000  1
  O  O112  1  0.25767000  0.32061000  0.54382000  1
  O  O113  1  0.26050000  0.78920000  0.91936000  1
  O  O114  1  0.28421000  0.90638000  0.32387000  1
  O  O115  1  0.28920000  0.23950000  0.16936000  1
  O  O116  1  0.32000000  0.82798000  0.63077000  1
  O  O117  1  0.32061000  0.25767000  0.45618000  1
  O  O118  1  0.32798000  0.18000000  0.88077000  1
  O  O119  1  0.35711000  0.43833000  0.20190000  1
  O  O120  1  0.37059000  0.58475000  0.29521000  1
  O  O121  1  0.40638000  0.21579000  0.57387000  1
  O  O122  1  0.41525000  0.62941000  0.20479000  1
  O  O123  1  0.43833000  0.35711000  0.79810000  1
  O  O124  1  0.56167000  0.64289000  0.29810000  1
  O  O125  1  0.58475000  0.37059000  0.70479000  1
  O  O126  1  0.59362000  0.78421000  0.07387000  1
  O  O127  1  0.62941000  0.41525000  0.79521000  1
  O  O128  1  0.64289000  0.56167000  0.70190000  1
  O  O129  1  0.67202000  0.82000000  0.38077000  1
  O  O130  1  0.67939000  0.74233000  0.95618000  1
  O  O131  1  0.68000000  0.17202000  0.13077000  1
  O  O132  1  0.71080000  0.76050000  0.66936000  1
  O  O133  1  0.71579000  0.09362000  0.82387000  1
  O  O134  1  0.73950000  0.21080000  0.41936000  1
  O  O135  1  0.74233000  0.67939000  0.04382000  1
  O  O136  1  0.75767000  0.17939000  0.70618000  1
  O  O137  1  0.76050000  0.71080000  0.33064000  1
  O  O138  1  0.78421000  0.59362000  0.92613000  1
  O  O139  1  0.78920000  0.26050000  0.08064000  1
  O  O140  1  0.82000000  0.67202000  0.61923000  1
  O  O141  1  0.82061000  0.24233000  0.79382000  1
  O  O142  1  0.82798000  0.32000000  0.36923000  1
  O  O143  1  0.85711000  0.06167000  0.04810000  1
  O  O144  1  0.87059000  0.91525000  0.95479000  1
  O  O145  1  0.90638000  0.28421000  0.67613000  1
  O  O146  1  0.91525000  0.87059000  0.04521000  1
  O  O147  1  0.93833000  0.14289000  0.45190000  1
