# generated using pymatgen
data_UH4C5(NO2)2
_symmetry_space_group_name_H-M   'P 1'
_cell_length_a   12.62400000
_cell_length_b   15.89100000
_cell_length_c   16.58500000
_cell_angle_alpha   90.00000000
_cell_angle_beta   105.21700000
_cell_angle_gamma   90.00000000
_symmetry_Int_Tables_number   1
_chemical_formula_structural   UH4C5(NO2)2
_chemical_formula_sum   'U12 H48 C60 N24 O48'
_cell_volume   3210.43140817
_cell_formula_units_Z   12
loop_
 _symmetry_equiv_pos_site_id
 _symmetry_equiv_pos_as_xyz
  1  'x, y, z'
loop_
 _atom_site_type_symbol
 _atom_site_label
 _atom_site_symmetry_multiplicity
 _atom_site_fract_x
 _atom_site_fract_y
 _atom_site_fract_z
 _atom_site_occupancy
  U  U0  1  0.18895000  0.02798000  0.74602000  1
  U  U1  1  0.18895000  0.47202000  0.24602000  1
  U  U2  1  0.26393000  0.10750000  0.23791000  1
  U  U3  1  0.26393000  0.39250000  0.73791000  1
  U  U4  1  0.34927000  0.69832000  0.60788000  1
  U  U5  1  0.34927000  0.80168000  0.10788000  1
  U  U6  1  0.65073000  0.19832000  0.89212000  1
  U  U7  1  0.65073000  0.30168000  0.39212000  1
  U  U8  1  0.73607000  0.60750000  0.26209000  1
  U  U9  1  0.73607000  0.89250000  0.76209000  1
  U  U10  1  0.81105000  0.52798000  0.75398000  1
  U  U11  1  0.81105000  0.97202000  0.25398000  1
  H  H12  1  0.02500000  0.11380000  0.43820000  1
  H  H13  1  0.02500000  0.38620000  0.93820000  1
  H  H14  1  0.03620000  0.69240000  0.62180000  1
  H  H15  1  0.03620000  0.80760000  0.12180000  1
  H  H16  1  0.05320000  0.15840000  0.95540000  1
  H  H17  1  0.05320000  0.34160000  0.45540000  1
  H  H18  1  0.06250000  0.67480000  0.11610000  1
  H  H19  1  0.06250000  0.82520000  0.61610000  1
  H  H20  1  0.24380000  0.50830000  0.00260000  1
  H  H21  1  0.24380000  0.99170000  0.50260000  1
  H  H22  1  0.33200000  0.09120000  0.97830000  1
  H  H23  1  0.33200000  0.40880000  0.47830000  1
  H  H24  1  0.36330000  0.54410000  0.02300000  1
  H  H25  1  0.36330000  0.95590000  0.52300000  1
  H  H26  1  0.43380000  0.62690000  0.37440000  1
  H  H27  1  0.43380000  0.87310000  0.87440000  1
  H  H28  1  0.44920000  0.72420000  0.38700000  1
  H  H29  1  0.44920000  0.77580000  0.88700000  1
  H  H30  1  0.45540000  0.06510000  0.01150000  1
  H  H31  1  0.45540000  0.43490000  0.51150000  1
  H  H32  1  0.47270000  0.50720000  0.16830000  1
  H  H33  1  0.47270000  0.99280000  0.66830000  1
  H  H34  1  0.49080000  0.57810000  0.86360000  1
  H  H35  1  0.49080000  0.92190000  0.36360000  1
  H  H36  1  0.50920000  0.07810000  0.63640000  1
  H  H37  1  0.50920000  0.42190000  0.13640000  1
  H  H38  1  0.52730000  0.00720000  0.33170000  1
  H  H39  1  0.52730000  0.49280000  0.83170000  1
  H  H40  1  0.54460000  0.56510000  0.48850000  1
  H  H41  1  0.54460000  0.93490000  0.98850000  1
  H  H42  1  0.55080000  0.22420000  0.11300000  1
  H  H43  1  0.55080000  0.27580000  0.61300000  1
  H  H44  1  0.56620000  0.12690000  0.12560000  1
  H  H45  1  0.56620000  0.37310000  0.62560000  1
  H  H46  1  0.63670000  0.04410000  0.47700000  1
  H  H47  1  0.63670000  0.45590000  0.97700000  1
  H  H48  1  0.66800000  0.59120000  0.52170000  1
  H  H49  1  0.66800000  0.90880000  0.02170000  1
  H  H50  1  0.75620000  0.00830000  0.49740000  1
  H  H51  1  0.75620000  0.49170000  0.99740000  1
  H  H52  1  0.93750000  0.17480000  0.38390000  1
  H  H53  1  0.93750000  0.32520000  0.88390000  1
  H  H54  1  0.94680000  0.65840000  0.54460000  1
  H  H55  1  0.94680000  0.84160000  0.04460000  1
  H  H56  1  0.96380000  0.19240000  0.87820000  1
  H  H57  1  0.96380000  0.30760000  0.37820000  1
  H  H58  1  0.97500000  0.61380000  0.06180000  1
  H  H59  1  0.97500000  0.88620000  0.56180000  1
  C  C60  1  0.01290000  0.15580000  0.39430000  1
  C  C61  1  0.01290000  0.34420000  0.89430000  1
  C  C62  1  0.02820000  0.11420000  0.31450000  1
  C  C63  1  0.02820000  0.38580000  0.81450000  1
  C  C64  1  0.04230000  0.18930000  0.90340000  1
  C  C65  1  0.04230000  0.31070000  0.40340000  1
  C  C66  1  0.09440000  0.13920000  0.84500000  1
  C  C67  1  0.09440000  0.36080000  0.34500000  1
  C  C68  1  0.18390000  0.21560000  0.47680000  1
  C  C69  1  0.18390000  0.28440000  0.97680000  1
  C  C70  1  0.27550000  0.59130000  0.10160000  1
  C  C71  1  0.27550000  0.90870000  0.60160000  1
  C  C72  1  0.30760000  0.52190000  0.04780000  1
  C  C73  1  0.30760000  0.97810000  0.54780000  1
  C  C74  1  0.31250000  0.13290000  0.56020000  1
  C  C75  1  0.31250000  0.36710000  0.06020000  1
  C  C76  1  0.34150000  0.22870000  0.05340000  1
  C  C77  1  0.34150000  0.27130000  0.55340000  1
  C  C78  1  0.35830000  0.01120000  0.07510000  1
  C  C79  1  0.35830000  0.48880000  0.57510000  1
  C  C80  1  0.39050000  0.08150000  0.02860000  1
  C  C81  1  0.39050000  0.41850000  0.52860000  1
  C  C82  1  0.44640000  0.09420000  0.73850000  1
  C  C83  1  0.44640000  0.40580000  0.23850000  1
  C  C84  1  0.45230000  0.05130000  0.65690000  1
  C  C85  1  0.45230000  0.44870000  0.15690000  1
  C  C86  1  0.47840000  0.68390000  0.27770000  1
  C  C87  1  0.47840000  0.81610000  0.77770000  1
  C  C88  1  0.48050000  0.67400000  0.36930000  1
  C  C89  1  0.48050000  0.82600000  0.86930000  1
  C  C90  1  0.51950000  0.17400000  0.13070000  1
  C  C91  1  0.51950000  0.32600000  0.63070000  1
  C  C92  1  0.52160000  0.18390000  0.22230000  1
  C  C93  1  0.52160000  0.31610000  0.72230000  1
  C  C94  1  0.54770000  0.55130000  0.84310000  1
  C  C95  1  0.54770000  0.94870000  0.34310000  1
  C  C96  1  0.55360000  0.59420000  0.76150000  1
  C  C97  1  0.55360000  0.90580000  0.26150000  1
  C  C98  1  0.60950000  0.58150000  0.47140000  1
  C  C99  1  0.60950000  0.91850000  0.97140000  1
  C  C100  1  0.64170000  0.51120000  0.42490000  1
  C  C101  1  0.64170000  0.98880000  0.92490000  1
  C  C102  1  0.65850000  0.72870000  0.44660000  1
  C  C103  1  0.65850000  0.77130000  0.94660000  1
  C  C104  1  0.68750000  0.63290000  0.93980000  1
  C  C105  1  0.68750000  0.86710000  0.43980000  1
  C  C106  1  0.69240000  0.02190000  0.45220000  1
  C  C107  1  0.69240000  0.47810000  0.95220000  1
  C  C108  1  0.72450000  0.09130000  0.39840000  1
  C  C109  1  0.72450000  0.40870000  0.89840000  1
  C  C110  1  0.81610000  0.71560000  0.02320000  1
  C  C111  1  0.81610000  0.78440000  0.52320000  1
  C  C112  1  0.90560000  0.63920000  0.65500000  1
  C  C113  1  0.90560000  0.86080000  0.15500000  1
  C  C114  1  0.95770000  0.68930000  0.59660000  1
  C  C115  1  0.95770000  0.81070000  0.09660000  1
  C  C116  1  0.97180000  0.61420000  0.18550000  1
  C  C117  1  0.97180000  0.88580000  0.68550000  1
  C  C118  1  0.98710000  0.65580000  0.10570000  1
  C  C119  1  0.98710000  0.84420000  0.60570000  1
  N  N120  1  0.08370000  0.22520000  0.42310000  1
  N  N121  1  0.08370000  0.27480000  0.92310000  1
  N  N122  1  0.21620000  0.13600000  0.50300000  1
  N  N123  1  0.21620000  0.36400000  0.00300000  1
  N  N124  1  0.24560000  0.21490000  0.99920000  1
  N  N125  1  0.24560000  0.28510000  0.49920000  1
  N  N126  1  0.34900000  0.05520000  0.59220000  1
  N  N127  1  0.34900000  0.44480000  0.09220000  1
  N  N128  1  0.37950000  0.19800000  0.58980000  1
  N  N129  1  0.37950000  0.30200000  0.08980000  1
  N  N130  1  0.41340000  0.16040000  0.07530000  1
  N  N131  1  0.41340000  0.33960000  0.57530000  1
  N  N132  1  0.58660000  0.66040000  0.42470000  1
  N  N133  1  0.58660000  0.83960000  0.92470000  1
  N  N134  1  0.62050000  0.69800000  0.91020000  1
  N  N135  1  0.62050000  0.80200000  0.41020000  1
  N  N136  1  0.65100000  0.55520000  0.90780000  1
  N  N137  1  0.65100000  0.94480000  0.40780000  1
  N  N138  1  0.75440000  0.71490000  0.50080000  1
  N  N139  1  0.75440000  0.78510000  0.00080000  1
  N  N140  1  0.78380000  0.63600000  0.99700000  1
  N  N141  1  0.78380000  0.86400000  0.49700000  1
  N  N142  1  0.91630000  0.72520000  0.07690000  1
  N  N143  1  0.91630000  0.77480000  0.57690000  1
  O  O144  1  0.04780000  0.57140000  0.22570000  1
  O  O145  1  0.04780000  0.92860000  0.72570000  1
  O  O146  1  0.05400000  0.06800000  0.82220000  1
  O  O147  1  0.05400000  0.43200000  0.32220000  1
  O  O148  1  0.11310000  0.12860000  0.29250000  1
  O  O149  1  0.11310000  0.37140000  0.79250000  1
  O  O150  1  0.17570000  0.16300000  0.82000000  1
  O  O151  1  0.17570000  0.33700000  0.32000000  1
  O  O152  1  0.25550000  0.57090000  0.16930000  1
  O  O153  1  0.25550000  0.92910000  0.66930000  1
  O  O154  1  0.27080000  0.66440000  0.07310000  1
  O  O155  1  0.27080000  0.83560000  0.57310000  1
  O  O156  1  0.31990000  0.02530000  0.13770000  1
  O  O157  1  0.31990000  0.47470000  0.63770000  1
  O  O158  1  0.35670000  0.09680000  0.75750000  1
  O  O159  1  0.35670000  0.40320000  0.25750000  1
  O  O160  1  0.36630000  0.56360000  0.54750000  1
  O  O161  1  0.36630000  0.93640000  0.04750000  1
  O  O162  1  0.39560000  0.72220000  0.23340000  1
  O  O163  1  0.39560000  0.77780000  0.73340000  1
  O  O164  1  0.44930000  0.15150000  0.25100000  1
  O  O165  1  0.44930000  0.34850000  0.75100000  1
  O  O166  1  0.46430000  0.62090000  0.71720000  1
  O  O167  1  0.46430000  0.87910000  0.21720000  1
  O  O168  1  0.53570000  0.12090000  0.78280000  1
  O  O169  1  0.53570000  0.37910000  0.28280000  1
  O  O170  1  0.55070000  0.65150000  0.24900000  1
  O  O171  1  0.55070000  0.84850000  0.74900000  1
  O  O172  1  0.60440000  0.22220000  0.26660000  1
  O  O173  1  0.60440000  0.27780000  0.76660000  1
  O  O174  1  0.63370000  0.06360000  0.95250000  1
  O  O175  1  0.63370000  0.43640000  0.45250000  1
  O  O176  1  0.64330000  0.59680000  0.74250000  1
  O  O177  1  0.64330000  0.90320000  0.24250000  1
  O  O178  1  0.68010000  0.52530000  0.36230000  1
  O  O179  1  0.68010000  0.97470000  0.86230000  1
  O  O180  1  0.72920000  0.16440000  0.42690000  1
  O  O181  1  0.72920000  0.33560000  0.92690000  1
  O  O182  1  0.74450000  0.07090000  0.33070000  1
  O  O183  1  0.74450000  0.42910000  0.83070000  1
  O  O184  1  0.82430000  0.66300000  0.68000000  1
  O  O185  1  0.82430000  0.83700000  0.18000000  1
  O  O186  1  0.88690000  0.62860000  0.20750000  1
  O  O187  1  0.88690000  0.87140000  0.70750000  1
  O  O188  1  0.94600000  0.56800000  0.67780000  1
  O  O189  1  0.94600000  0.93200000  0.17780000  1
  O  O190  1  0.95220000  0.07140000  0.27430000  1
  O  O191  1  0.95220000  0.42860000  0.77430000  1
