# generated using pymatgen
data_Zn3H46C56(N2O3)4
_symmetry_space_group_name_H-M   'P 1'
_cell_length_a   9.48060000
_cell_length_b   18.12700000
_cell_length_c   18.69300000
_cell_angle_alpha   61.88000000
_cell_angle_beta   83.98000000
_cell_angle_gamma   86.35000000
_symmetry_Int_Tables_number   1
_chemical_formula_structural   Zn3H46C56(N2O3)4
_chemical_formula_sum   'Zn6 H92 C112 N16 O24'
_cell_volume   2817.29319567
_cell_formula_units_Z   2
loop_
 _symmetry_equiv_pos_site_id
 _symmetry_equiv_pos_as_xyz
  1  'x, y, z'
loop_
 _atom_site_type_symbol
 _atom_site_label
 _atom_site_symmetry_multiplicity
 _atom_site_fract_x
 _atom_site_fract_y
 _atom_site_fract_z
 _atom_site_occupancy
  Zn  Zn0  1  0.34168000  0.08069000  0.64248000  1
  Zn  Zn1  1  0.35643000  0.92813000  0.87054000  1
  Zn  Zn2  1  0.48901000  0.49966000  0.25516000  1
  Zn  Zn3  1  0.51099000  0.50034000  0.74484000  1
  Zn  Zn4  1  0.64357000  0.07187000  0.12946000  1
  Zn  Zn5  1  0.65832000  0.91931000  0.35752000  1
  H  H6  1  0.01420000  0.23150000  0.82370000  1
  H  H7  1  0.01680000  0.27700000  0.39530000  1
  H  H8  1  0.02480000  0.77080000  0.33990000  1
  H  H9  1  0.03720000  0.61610000  0.84250000  1
  H  H10  1  0.06050000  0.16630000  0.73290000  1
  H  H11  1  0.06400000  0.86020000  0.59540000  1
  H  H12  1  0.08350000  0.21400000  0.20310000  1
  H  H13  1  0.09410000  0.29050000  0.05310000  1
  H  H14  1  0.09800000  0.20900000  0.94380000  1
  H  H15  1  0.09880000  0.30790000  0.26370000  1
  H  H16  1  0.10550000  0.90020000  0.09080000  1
  H  H17  1  0.10700000  0.72250000  0.48460000  1
  H  H18  1  0.10740000  0.33800000  0.69830000  1
  H  H19  1  0.11420000  0.04460000  0.89500000  1
  H  H20  1  0.13890000  0.73260000  0.87410000  1
  H  H21  1  0.13960000  0.21830000  0.64660000  1
  H  H22  1  0.17480000  0.10650000  0.41030000  1
  H  H23  1  0.19100000  0.79510000  0.78410000  1
  H  H24  1  0.20920000  0.31330000  0.09360000  1
  H  H25  1  0.21600000  0.16290000  0.19170000  1
  H  H26  1  0.22080000  0.93910000  0.61850000  1
  H  H27  1  0.22970000  0.82200000  0.32930000  1
  H  H28  1  0.23560000  0.68400000  0.45260000  1
  H  H29  1  0.25090000  0.55780000  0.82500000  1
  H  H30  1  0.26030000  0.82560000  0.47630000  1
  H  H31  1  0.26770000  0.99640000  0.39110000  1
  H  H32  1  0.26890000  0.19170000  0.04240000  1
  H  H33  1  0.26890000  0.42900000  0.69580000  1
  H  H34  1  0.27880000  0.78240000  0.85570000  1
  H  H35  1  0.29740000  0.05570000  0.14960000  1
  H  H36  1  0.30540000  0.89740000  0.32720000  1
  H  H37  1  0.30800000  0.94720000  0.11650000  1
  H  H38  1  0.32890000  0.68360000  0.15790000  1
  H  H39  1  0.35710000  0.32120000  0.35650000  1
  H  H40  1  0.37930000  0.23970000  0.06110000  1
  H  H41  1  0.38340000  0.78890000  0.43900000  1
  H  H42  1  0.43290000  0.59310000  0.49800000  1
  H  H43  1  0.43780000  0.40330000  0.00050000  1
  H  H44  1  0.43970000  0.64960000  0.01730000  1
  H  H45  1  0.45700000  0.26250000  0.17540000  1
  H  H46  1  0.45830000  0.43920000  0.43550000  1
  H  H47  1  0.45910000  0.55460000  0.07870000  1
  H  H48  1  0.46050000  0.10540000  0.91020000  1
  H  H49  1  0.46880000  0.34360000  0.49680000  1
  H  H50  1  0.47870000  0.72850000  0.32670000  1
  H  H51  1  0.49130000  0.08810000  0.40810000  1
  H  H52  1  0.50870000  0.91190000  0.59190000  1
  H  H53  1  0.52130000  0.27150000  0.67330000  1
  H  H54  1  0.53120000  0.65640000  0.50320000  1
  H  H55  1  0.53950000  0.89460000  0.08980000  1
  H  H56  1  0.54090000  0.44540000  0.92130000  1
  H  H57  1  0.54170000  0.56080000  0.56450000  1
  H  H58  1  0.54300000  0.73750000  0.82460000  1
  H  H59  1  0.56030000  0.35040000  0.98270000  1
  H  H60  1  0.56220000  0.59670000  0.99950000  1
  H  H61  1  0.56710000  0.40690000  0.50200000  1
  H  H62  1  0.61660000  0.21110000  0.56100000  1
  H  H63  1  0.62070000  0.76030000  0.93890000  1
  H  H64  1  0.64290000  0.67880000  0.64350000  1
  H  H65  1  0.67110000  0.31640000  0.84210000  1
  H  H66  1  0.69200000  0.05280000  0.88350000  1
  H  H67  1  0.69460000  0.10260000  0.67280000  1
  H  H68  1  0.70260000  0.94430000  0.85040000  1
  H  H69  1  0.72120000  0.21760000  0.14430000  1
  H  H70  1  0.73110000  0.57100000  0.30420000  1
  H  H71  1  0.73110000  0.80830000  0.95760000  1
  H  H72  1  0.73230000  0.00360000  0.60890000  1
  H  H73  1  0.73970000  0.17440000  0.52370000  1
  H  H74  1  0.74910000  0.44220000  0.17500000  1
  H  H75  1  0.76440000  0.31600000  0.54740000  1
  H  H76  1  0.77030000  0.17800000  0.67070000  1
  H  H77  1  0.77920000  0.06090000  0.38150000  1
  H  H78  1  0.78400000  0.83710000  0.80830000  1
  H  H79  1  0.79080000  0.68670000  0.90640000  1
  H  H80  1  0.80900000  0.20490000  0.21590000  1
  H  H81  1  0.82520000  0.89350000  0.58970000  1
  H  H82  1  0.86040000  0.78170000  0.35340000  1
  H  H83  1  0.86110000  0.26740000  0.12590000  1
  H  H84  1  0.88580000  0.95540000  0.10500000  1
  H  H85  1  0.89260000  0.66200000  0.30170000  1
  H  H86  1  0.89300000  0.27750000  0.51540000  1
  H  H87  1  0.89450000  0.09980000  0.90920000  1
  H  H88  1  0.90120000  0.69210000  0.73630000  1
  H  H89  1  0.90200000  0.79100000  0.05620000  1
  H  H90  1  0.90590000  0.70950000  0.94690000  1
  H  H91  1  0.91650000  0.78600000  0.79690000  1
  H  H92  1  0.93600000  0.13980000  0.40460000  1
  H  H93  1  0.93950000  0.83370000  0.26710000  1
  H  H94  1  0.96280000  0.38390000  0.15750000  1
  H  H95  1  0.97520000  0.22920000  0.66010000  1
  H  H96  1  0.98320000  0.72300000  0.60470000  1
  H  H97  1  0.98580000  0.76850000  0.17630000  1
  C  C98  1  0.01000000  0.32760000  0.27380000  1
  C  C99  1  0.03000000  0.90540000  0.60320000  1
  C  C100  1  0.03060000  0.12370000  0.65500000  1
  C  C101  1  0.03280000  0.02430000  0.88700000  1
  C  C102  1  0.03740000  0.69070000  0.64800000  1
  C  C103  1  0.04030000  0.95950000  0.86730000  1
  C  C104  1  0.05340000  0.19000000  0.67540000  1
  C  C105  1  0.06750000  0.01610000  0.63110000  1
  C  C106  1  0.07140000  0.62510000  0.79060000  1
  C  C107  1  0.07680000  0.96390000  0.37300000  1
  C  C108  1  0.08110000  0.07020000  0.14500000  1
  C  C109  1  0.08420000  0.26580000  0.82270000  1
  C  C110  1  0.09720000  0.94270000  0.10560000  1
  C  C111  1  0.10230000  0.85320000  0.84730000  1
  C  C112  1  0.11510000  0.07440000  0.40000000  1
  C  C113  1  0.12410000  0.95140000  0.61780000  1
  C  C114  1  0.13180000  0.19390000  0.16710000  1
  C  C115  1  0.13290000  0.25230000  0.89430000  1
  C  C116  1  0.13860000  0.33130000  0.74660000  1
  C  C117  1  0.17130000  0.00960000  0.38870000  1
  C  C118  1  0.17160000  0.65850000  0.63620000  1
  C  C119  1  0.17600000  0.26910000  0.08460000  1
  C  C120  1  0.18500000  0.78480000  0.83960000  1
  C  C121  1  0.19930000  0.59140000  0.78090000  1
  C  C122  1  0.20900000  0.71380000  0.48370000  1
  C  C123  1  0.21650000  0.03630000  0.14010000  1
  C  C124  1  0.22080000  0.97230000  0.12040000  1
  C  C125  1  0.23450000  0.85490000  0.35750000  1
  C  C126  1  0.23460000  0.30450000  0.89110000  1
  C  C127  1  0.23670000  0.38420000  0.74490000  1
  C  C128  1  0.25010000  0.60950000  0.70150000  1
  C  C129  1  0.28150000  0.79790000  0.44280000  1
  C  C130  1  0.28830000  0.37050000  0.81760000  1
  C  C131  1  0.29030000  0.24560000  0.03750000  1
  C  C132  1  0.34090000  0.61030000  0.31920000  1
  C  C133  1  0.36530000  0.39420000  0.19300000  1
  C  C134  1  0.36860000  0.61760000  0.59170000  1
  C  C135  1  0.37670000  0.71790000  0.17140000  1
  C  C136  1  0.38860000  0.28210000  0.33930000  1
  C  C137  1  0.39040000  0.17390000  0.48580000  1
  C  C138  1  0.39570000  0.82550000  0.02330000  1
  C  C139  1  0.39680000  0.37270000  0.91450000  1
  C  C140  1  0.39760000  0.69200000  0.25230000  1
  C  C141  1  0.40450000  0.30540000  0.25660000  1
  C  C142  1  0.41670000  0.12000000  0.76610000  1
  C  C143  1  0.41960000  0.20010000  0.39660000  1
  C  C144  1  0.42670000  0.79480000  0.11030000  1
  C  C145  1  0.44860000  0.24690000  0.23070000  1
  C  C146  1  0.46740000  0.74470000  0.27240000  1
  C  C147  1  0.46750000  0.14230000  0.37040000  1
  C  C148  1  0.47090000  0.89770000  0.74080000  1
  C  C149  1  0.47840000  0.60590000  0.53420000  1
  C  C150  1  0.48030000  0.16520000  0.28670000  1
  C  C151  1  0.48030000  0.17960000  0.78770000  1
  C  C152  1  0.49230000  0.39490000  0.95860000  1
  C  C153  1  0.49860000  0.15530000  0.86940000  1
  C  C154  1  0.50140000  0.84470000  0.13060000  1
  C  C155  1  0.50770000  0.60510000  0.04140000  1
  C  C156  1  0.51970000  0.82040000  0.21230000  1
  C  C157  1  0.51970000  0.83480000  0.71330000  1
  C  C158  1  0.52160000  0.39410000  0.46580000  1
  C  C159  1  0.52910000  0.10230000  0.25920000  1
  C  C160  1  0.53250000  0.85770000  0.62960000  1
  C  C161  1  0.53260000  0.25530000  0.72760000  1
  C  C162  1  0.55140000  0.75310000  0.76930000  1
  C  C163  1  0.57330000  0.20520000  0.88970000  1
  C  C164  1  0.58040000  0.79990000  0.60340000  1
  C  C165  1  0.58330000  0.88000000  0.23390000  1
  C  C166  1  0.59550000  0.69460000  0.74340000  1
  C  C167  1  0.60240000  0.30800000  0.74770000  1
  C  C168  1  0.60320000  0.62730000  0.08550000  1
  C  C169  1  0.60430000  0.17450000  0.97670000  1
  C  C170  1  0.60960000  0.82610000  0.51420000  1
  C  C171  1  0.61140000  0.71790000  0.66070000  1
  C  C172  1  0.62330000  0.28210000  0.82860000  1
  C  C173  1  0.63140000  0.38240000  0.40830000  1
  C  C174  1  0.63470000  0.60580000  0.80700000  1
  C  C175  1  0.65910000  0.38970000  0.68080000  1
  C  C176  1  0.70970000  0.75440000  0.96250000  1
  C  C177  1  0.71170000  0.62950000  0.18240000  1
  C  C178  1  0.71850000  0.20210000  0.55720000  1
  C  C179  1  0.74990000  0.39050000  0.29850000  1
  C  C180  1  0.76330000  0.61580000  0.25510000  1
  C  C181  1  0.76540000  0.69550000  0.10890000  1
  C  C182  1  0.76550000  0.14510000  0.64250000  1
  C  C183  1  0.77920000  0.02770000  0.87960000  1
  C  C184  1  0.78350000  0.96370000  0.85990000  1
  C  C185  1  0.79100000  0.28620000  0.51630000  1
  C  C186  1  0.80070000  0.40860000  0.21910000  1
  C  C187  1  0.81500000  0.21520000  0.16040000  1
  C  C188  1  0.82400000  0.73090000  0.91540000  1
  C  C189  1  0.82840000  0.34150000  0.36380000  1
  C  C190  1  0.82870000  0.99040000  0.61130000  1
  C  C191  1  0.86140000  0.66870000  0.25340000  1
  C  C192  1  0.86710000  0.74770000  0.10570000  1
  C  C193  1  0.86820000  0.80610000  0.83290000  1
  C  C194  1  0.87590000  0.04860000  0.38220000  1
  C  C195  1  0.88490000  0.92560000  0.60000000  1
  C  C196  1  0.89770000  0.14680000  0.15270000  1
  C  C197  1  0.90280000  0.05730000  0.89440000  1
  C  C198  1  0.91580000  0.73420000  0.17730000  1
  C  C199  1  0.91890000  0.92980000  0.85500000  1
  C  C200  1  0.92320000  0.03610000  0.62700000  1
  C  C201  1  0.92860000  0.37490000  0.20940000  1
  C  C202  1  0.93250000  0.98390000  0.36890000  1
  C  C203  1  0.94660000  0.81000000  0.32460000  1
  C  C204  1  0.95970000  0.04050000  0.13270000  1
  C  C205  1  0.96260000  0.30930000  0.35200000  1
  C  C206  1  0.96720000  0.97570000  0.11300000  1
  C  C207  1  0.96940000  0.87630000  0.34500000  1
  C  C208  1  0.97000000  0.09460000  0.39680000  1
  C  C209  1  0.99000000  0.67240000  0.72620000  1
  N  N210  1  0.03730000  0.13750000  0.15840000  1
  N  N211  1  0.09640000  0.89610000  0.35800000  1
  N  N212  1  0.13180000  0.07180000  0.64900000  1
  N  N213  1  0.15470000  0.91130000  0.86070000  1
  N  N214  1  0.24900000  0.66350000  0.56700000  1
  N  N215  1  0.30750000  0.30720000  0.95030000  1
  N  N216  1  0.37430000  0.58420000  0.67130000  1
  N  N217  1  0.38900000  0.41190000  0.83360000  1
  N  N218  1  0.61100000  0.58810000  0.16640000  1
  N  N219  1  0.62570000  0.41580000  0.32870000  1
  N  N220  1  0.69250000  0.69280000  0.04970000  1
  N  N221  1  0.75100000  0.33650000  0.43300000  1
  N  N222  1  0.84530000  0.08870000  0.13930000  1
  N  N223  1  0.86820000  0.92820000  0.35100000  1
  N  N224  1  0.90360000  0.10390000  0.64200000  1
  N  N225  1  0.96270000  0.86250000  0.84160000  1
  O  O226  1  0.27970000  0.61020000  0.38000000  1
  O  O227  1  0.33050000  0.22110000  0.50920000  1
  O  O228  1  0.33670000  0.40450000  0.12740000  1
  O  O229  1  0.33840000  0.77940000  0.00370000  1
  O  O230  1  0.35750000  0.54550000  0.31040000  1
  O  O231  1  0.35950000  0.45070000  0.21620000  1
  O  O232  1  0.37140000  0.05190000  0.82170000  1
  O  O233  1  0.41390000  0.96290000  0.69140000  1
  O  O234  1  0.41810000  0.14160000  0.69080000  1
  O  O235  1  0.42790000  0.90070000  0.97320000  1
  O  O236  1  0.42990000  0.10030000  0.53510000  1
  O  O237  1  0.48610000  0.88040000  0.81330000  1
  O  O238  1  0.51390000  0.11960000  0.18670000  1
  O  O239  1  0.57010000  0.89970000  0.46490000  1
  O  O240  1  0.57210000  0.09930000  0.02680000  1
  O  O241  1  0.58190000  0.85840000  0.30920000  1
  O  O242  1  0.58610000  0.03710000  0.30860000  1
  O  O243  1  0.62860000  0.94810000  0.17830000  1
  O  O244  1  0.64050000  0.54930000  0.78380000  1
  O  O245  1  0.64250000  0.45450000  0.68960000  1
  O  O246  1  0.66160000  0.22060000  0.99630000  1
  O  O247  1  0.66330000  0.59550000  0.87260000  1
  O  O248  1  0.66950000  0.77890000  0.49080000  1
  O  O249  1  0.72030000  0.38980000  0.62000000  1
