# generated using pymatgen
data_GdH2C7(NO3)2
_symmetry_space_group_name_H-M   'P 1'
_cell_length_a   6.09220000
_cell_length_b   9.96330000
_cell_length_c   13.35980000
_cell_angle_alpha   68.85300000
_cell_angle_beta   81.10400000
_cell_angle_gamma   76.84800000
_symmetry_Int_Tables_number   1
_chemical_formula_structural   GdH2C7(NO3)2
_chemical_formula_sum   'Gd2 H4 C14 N4 O12'
_cell_volume   734.11765908
_cell_formula_units_Z   2
loop_
 _symmetry_equiv_pos_site_id
 _symmetry_equiv_pos_as_xyz
  1  'x, y, z'
loop_
 _atom_site_type_symbol
 _atom_site_label
 _atom_site_symmetry_multiplicity
 _atom_site_fract_x
 _atom_site_fract_y
 _atom_site_fract_z
 _atom_site_occupancy
  Gd  Gd0  1  0.16786000  0.38571000  0.80429000  1
  Gd  Gd1  1  0.83214000  0.61429000  0.19572000  1
  H  H2  1  0.29600000  0.67520000  0.37030000  1
  H  H3  1  0.32690000  0.04710000  0.02810000  1
  H  H4  1  0.67310000  0.95290000  0.97190000  1
  H  H5  1  0.70400000  0.32480000  0.62970000  1
  C  C6  1  0.04930000  0.61740000  0.56050000  1
  C  C7  1  0.08880000  0.43990000  0.03450000  1
  C  C8  1  0.13400000  0.89340000  0.06870000  1
  C  C9  1  0.19210000  0.02980000  0.01520000  1
  C  C10  1  0.28830000  0.76610000  0.14100000  1
  C  C11  1  0.28990000  0.55590000  0.52720000  1
  C  C12  1  0.38280000  0.60240000  0.42240000  1
  C  C13  1  0.61720000  0.39760000  0.57760000  1
  C  C14  1  0.71010000  0.44410000  0.47280000  1
  C  C15  1  0.71170000  0.23390000  0.85900000  1
  C  C16  1  0.80790000  0.97020000  0.98480000  1
  C  C17  1  0.86600000  0.10660000  0.93130000  1
  C  C18  1  0.91120000  0.56010000  0.96550000  1
  C  C19  1  0.95070000  0.38260000  0.43950000  1
  N  N20  1  0.05990000  0.13630000  0.94580000  1
  N  N21  1  0.40660000  0.45350000  0.60670000  1
  N  N22  1  0.59340000  0.54650000  0.39330000  1
  N  N23  1  0.94010000  0.86370000  0.05420000  1
  O  O24  1  0.01420000  0.43150000  0.34180000  1
  O  O25  1  0.06910000  0.29060000  0.51020000  1
  O  O26  1  0.08470000  0.42950000  0.13030000  1
  O  O27  1  0.21420000  0.64930000  0.18370000  1
  O  O28  1  0.22300000  0.36120000  0.98730000  1
  O  O29  1  0.47990000  0.78340000  0.15140000  1
  O  O30  1  0.52010000  0.21660000  0.84860000  1
  O  O31  1  0.77700000  0.63880000  0.01270000  1
  O  O32  1  0.78580000  0.35070000  0.81630000  1
  O  O33  1  0.91530000  0.57050000  0.86970000  1
  O  O34  1  0.93090000  0.70940000  0.48980000  1
  O  O35  1  0.98580000  0.56850000  0.65820000  1
