# generated using pymatgen
data_NdH14C16(N3O4)2
_symmetry_space_group_name_H-M   'P 1'
_cell_length_a   23.26577247
_cell_length_b   23.26577247
_cell_length_c   23.26577247
_cell_angle_alpha   109.47122063
_cell_angle_beta   109.47122063
_cell_angle_gamma   109.47122063
_symmetry_Int_Tables_number   1
_chemical_formula_structural   NdH14C16(N3O4)2
_chemical_formula_sum   'Nd12 H168 C192 N72 O96'
_cell_volume   9694.61438231
_cell_formula_units_Z   12
loop_
 _symmetry_equiv_pos_site_id
 _symmetry_equiv_pos_as_xyz
  1  'x, y, z'
loop_
 _atom_site_type_symbol
 _atom_site_label
 _atom_site_symmetry_multiplicity
 _atom_site_fract_x
 _atom_site_fract_y
 _atom_site_fract_z
 _atom_site_occupancy
  C  C0  1  0.06770000  0.74430000  0.80620000  1
  C  C1  1  0.43810000  0.24430000  0.67660000  1
  C  C2  1  0.56770000  0.26150000  0.82340000  1
  C  C3  1  0.93810000  0.76150000  0.69380000  1
  C  C4  1  0.05900000  0.19930000  0.24310000  1
  C  C5  1  0.45620000  0.69930000  0.14030000  1
  C  C6  1  0.55900000  0.81590000  0.35970000  1
  C  C7  1  0.95620000  0.31590000  0.25690000  1
  C  C8  1  0.04250000  0.62770000  0.63160000  1
  C  C9  1  0.49610000  0.12770000  0.58520000  1
  C  C10  1  0.54250000  0.41090000  0.91480000  1
  C  C11  1  0.99610000  0.91090000  0.86840000  1
  C  C12  1  0.13160000  0.50390000  0.58910000  1
  C  C13  1  0.41480000  0.00390000  0.37230000  1
  C  C14  1  0.63160000  0.54250000  0.12770000  1
  C  C15  1  0.91480000  0.04250000  0.91090000  1
  C  C16  1  0.07130000  0.69050000  0.69980000  1
  C  C17  1  0.49070000  0.19050000  0.61920000  1
  C  C18  1  0.57130000  0.37150000  0.88080000  1
  C  C19  1  0.99070000  0.87150000  0.80020000  1
  C  C20  1  0.19980000  0.50930000  0.62850000  1
  C  C21  1  0.38080000  0.00930000  0.30950000  1
  C  C22  1  0.69980000  0.57130000  0.19050000  1
  C  C23  1  0.88080000  0.07130000  0.87150000  1
  C  C24  1  0.22000000  0.46530000  0.59750000  1
  C  C25  1  0.36780000  0.96530000  0.24530000  1
  C  C26  1  0.72000000  0.62250000  0.25470000  1
  C  C27  1  0.86780000  0.12250000  0.90250000  1
  C  C28  1  0.24310000  0.55900000  0.69930000  1
  C  C29  1  0.35970000  0.05900000  0.31590000  1
  C  C30  1  0.74310000  0.54380000  0.18410000  1
  C  C31  1  0.85970000  0.04380000  0.80070000  1
  C  C32  1  0.12020000  0.80940000  0.82520000  1
  C  C33  1  0.48420000  0.30940000  0.68920000  1
  C  C34  1  0.62020000  0.29500000  0.81080000  1
  C  C35  1  0.98420000  0.79500000  0.67480000  1
  C  C36  1  0.28150000  0.46740000  0.63370000  1
  C  C37  1  0.33370000  0.96740000  0.18590000  1
  C  C38  1  0.78150000  0.64780000  0.31410000  1
  C  C39  1  0.83370000  0.14780000  0.86630000  1
  C  C40  1  0.14180000  0.87520000  0.88900000  1
  C  C41  1  0.48620000  0.37520000  0.73340000  1
  C  C42  1  0.64180000  0.25280000  0.76660000  1
  C  C43  1  0.98620000  0.75280000  0.61100000  1
  C  C44  1  0.30620000  0.56190000  0.73850000  1
  C  C45  1  0.32340000  0.06190000  0.25570000  1
  C  C46  1  0.80620000  0.56770000  0.24430000  1
  C  C47  1  0.82340000  0.06770000  0.76150000  1
  C  C48  1  0.31080000  0.01580000  0.19060000  1
  C  C49  1  0.32520000  0.51580000  0.70500000  1
  C  C50  1  0.81080000  0.12020000  0.79500000  1
  C  C51  1  0.82520000  0.62020000  0.30940000  1
  C  C52  1  0.26660000  0.01380000  0.12480000  1
  C  C53  1  0.38900000  0.51380000  0.74720000  1
  C  C54  1  0.76660000  0.14180000  0.75280000  1
  C  C55  1  0.88900000  0.64180000  0.37520000  1
  C  C56  1  0.12250000  0.75470000  0.72000000  1
  C  C57  1  0.53470000  0.25470000  0.63220000  1
  C  C58  1  0.62250000  0.40250000  0.86780000  1
  C  C59  1  0.03470000  0.90250000  0.78000000  1
  C  C60  1  0.14780000  0.81410000  0.78150000  1
  C  C61  1  0.53260000  0.31410000  0.66630000  1
  C  C62  1  0.64780000  0.36630000  0.83370000  1
  C  C63  1  0.03260000  0.86630000  0.71850000  1
  C  C64  1  0.12770000  0.13160000  0.04250000  1
  C  C65  1  0.58910000  0.63160000  0.00390000  1
  C  C66  1  0.62770000  0.08520000  0.49610000  1
  C  C67  1  0.08910000  0.58520000  0.45750000  1
  C  C68  1  0.19050000  0.19980000  0.07130000  1
  C  C69  1  0.62850000  0.69980000  0.00930000  1
  C  C70  1  0.69050000  0.11920000  0.49070000  1
  C  C71  1  0.12850000  0.61920000  0.42870000  1
  C  C72  1  0.25470000  0.22000000  0.12250000  1
  C  C73  1  0.59750000  0.72000000  0.96530000  1
  C  C74  1  0.75470000  0.13220000  0.53470000  1
  C  C75  1  0.09750000  0.63220000  0.37750000  1
  C  C76  1  0.25280000  0.11100000  0.98620000  1
  C  C77  1  0.62480000  0.61100000  0.85820000  1
  C  C78  1  0.75280000  0.26660000  0.64180000  1
  C  C79  1  0.12480000  0.76660000  0.51380000  1
  C  C80  1  0.19930000  0.64030000  0.45620000  1
  C  C81  1  0.68410000  0.14030000  0.44100000  1
  C  C82  1  0.69930000  0.74310000  0.05900000  1
  C  C83  1  0.18410000  0.24310000  0.04380000  1
  C  C84  1  0.31410000  0.28150000  0.14780000  1
  C  C85  1  0.63370000  0.78150000  0.96740000  1
  C  C86  1  0.81410000  0.16630000  0.53260000  1
  C  C87  1  0.13370000  0.66630000  0.35220000  1
  C  C88  1  0.24430000  0.30620000  0.06770000  1
  C  C89  1  0.73850000  0.80620000  0.06190000  1
  C  C90  1  0.74430000  0.17660000  0.43810000  1
  C  C91  1  0.23850000  0.67660000  0.43230000  1
  C  C92  1  0.29500000  0.17480000  0.98420000  1
  C  C93  1  0.69060000  0.67480000  0.87980000  1
  C  C94  1  0.79500000  0.31080000  0.62020000  1
  C  C95  1  0.19060000  0.81080000  0.51580000  1
  C  C96  1  0.30940000  0.32520000  0.12020000  1
  C  C97  1  0.70500000  0.82520000  0.01580000  1
  C  C98  1  0.80940000  0.18920000  0.48420000  1
  C  C99  1  0.20500000  0.68920000  0.37980000  1
  C  C100  1  0.26150000  0.19380000  0.93810000  1
  C  C101  1  0.75570000  0.69380000  0.93230000  1
  C  C102  1  0.76150000  0.32340000  0.56770000  1
  C  C103  1  0.25570000  0.82340000  0.56190000  1
  C  C104  1  0.36630000  0.21850000  0.03260000  1
  C  C105  1  0.68590000  0.71850000  0.85220000  1
  C  C106  1  0.86630000  0.33370000  0.64780000  1
  C  C107  1  0.18590000  0.83370000  0.46740000  1
  C  C108  1  0.31590000  0.85970000  0.55900000  1
  C  C109  1  0.80070000  0.35970000  0.54380000  1
  C  C110  1  0.81590000  0.75690000  0.95620000  1
  C  C111  1  0.30070000  0.25690000  0.94100000  1
  C  C112  1  0.37520000  0.38900000  0.14180000  1
  C  C113  1  0.74720000  0.88900000  0.01380000  1
  C  C114  1  0.87520000  0.23340000  0.48620000  1
  C  C115  1  0.24720000  0.73340000  0.35820000  1
  C  C116  1  0.40250000  0.28000000  0.03470000  1
  C  C117  1  0.74530000  0.78000000  0.87750000  1
  C  C118  1  0.90250000  0.36780000  0.62250000  1
  C  C119  1  0.24530000  0.86780000  0.46530000  1
  C  C120  1  0.37150000  0.30020000  0.99070000  1
  C  C121  1  0.80950000  0.80020000  0.92870000  1
  C  C122  1  0.87150000  0.38080000  0.57130000  1
  C  C123  1  0.30950000  0.88080000  0.50930000  1
  C  C124  1  0.41090000  0.36840000  0.99610000  1
  C  C125  1  0.87230000  0.86840000  0.95750000  1
  C  C126  1  0.91090000  0.41480000  0.54250000  1
  C  C127  1  0.37230000  0.91480000  0.50390000  1
  C  C128  1  0.46740000  0.68590000  0.33370000  1
  C  C129  1  0.85220000  0.18590000  0.21850000  1
  C  C130  1  0.96740000  0.13370000  0.28150000  1
  C  C131  1  0.35220000  0.63370000  0.16630000  1
  C  C132  1  0.46530000  0.74530000  0.36780000  1
  C  C133  1  0.87750000  0.24530000  0.28000000  1
  C  C134  1  0.96530000  0.09750000  0.22000000  1
  C  C135  1  0.37750000  0.59750000  0.13220000  1
  C  C136  1  0.61100000  0.48620000  0.25280000  1
  C  C137  1  0.73340000  0.98620000  0.87520000  1
  C  C138  1  0.11100000  0.35820000  0.62480000  1
  C  C139  1  0.23340000  0.85820000  0.24720000  1
  C  C140  1  0.67480000  0.48420000  0.29500000  1
  C  C141  1  0.68920000  0.98420000  0.80940000  1
  C  C142  1  0.17480000  0.37980000  0.69060000  1
  C  C143  1  0.18920000  0.87980000  0.20500000  1
  C  C144  1  0.67660000  0.93810000  0.74430000  1
  C  C145  1  0.69380000  0.43810000  0.26150000  1
  C  C146  1  0.17660000  0.93230000  0.23850000  1
  C  C147  1  0.19380000  0.43230000  0.75570000  1
  C  C148  1  0.51380000  0.62480000  0.26660000  1
  C  C149  1  0.85820000  0.12480000  0.11100000  1
  C  C150  1  0.01380000  0.24720000  0.38900000  1
  C  C151  1  0.35820000  0.74720000  0.23340000  1
  C  C152  1  0.66630000  0.03260000  0.81410000  1
  C  C153  1  0.71850000  0.53260000  0.36630000  1
  C  C154  1  0.16630000  0.85220000  0.13370000  1
  C  C155  1  0.21850000  0.35220000  0.68590000  1
  C  C156  1  0.51580000  0.69060000  0.31080000  1
  C  C157  1  0.87980000  0.19060000  0.17480000  1
  C  C158  1  0.01580000  0.20500000  0.32520000  1
  C  C159  1  0.37980000  0.70500000  0.18920000  1
  C  C160  1  0.64030000  0.94100000  0.68410000  1
  C  C161  1  0.75690000  0.44100000  0.30070000  1
  C  C162  1  0.14030000  0.95620000  0.19930000  1
  C  C163  1  0.25690000  0.45620000  0.81590000  1
  C  C164  1  0.63220000  0.03470000  0.75470000  1
  C  C165  1  0.78000000  0.53470000  0.40250000  1
  C  C166  1  0.13220000  0.87750000  0.09750000  1
  C  C167  1  0.28000000  0.37750000  0.74530000  1
  C  C168  1  0.61920000  0.99070000  0.69050000  1
  C  C169  1  0.80020000  0.49070000  0.37150000  1
  C  C170  1  0.11920000  0.92870000  0.12850000  1
  C  C171  1  0.30020000  0.42870000  0.80950000  1
  C  C172  1  0.50930000  0.80950000  0.38080000  1
  C  C173  1  0.92870000  0.30950000  0.30020000  1
  C  C174  1  0.00930000  0.12850000  0.19980000  1
  C  C175  1  0.42870000  0.62850000  0.11920000  1
  C  C176  1  0.58520000  0.99610000  0.62770000  1
  C  C177  1  0.86840000  0.49610000  0.41090000  1
  C  C178  1  0.08520000  0.95750000  0.08910000  1
  C  C179  1  0.36840000  0.45750000  0.87230000  1
  C  C180  1  0.50390000  0.87230000  0.41480000  1
  C  C181  1  0.95750000  0.37230000  0.36840000  1
  C  C182  1  0.00390000  0.08910000  0.13160000  1
  C  C183  1  0.45750000  0.58910000  0.08520000  1
  C  C184  1  0.54380000  0.30070000  0.85970000  1
  C  C185  1  0.94100000  0.80070000  0.75690000  1
  C  C186  1  0.04380000  0.68410000  0.74310000  1
  C  C187  1  0.44100000  0.18410000  0.64030000  1
  C  C188  1  0.56190000  0.75570000  0.32340000  1
  C  C189  1  0.93230000  0.25570000  0.19380000  1
  C  C190  1  0.06190000  0.23850000  0.30620000  1
  C  C191  1  0.43230000  0.73850000  0.17660000  1
  H  H192  1  0.18660000  0.60060000  0.72360000  1
  H  H193  1  0.37700000  0.10060000  0.41400000  1
  H  H194  1  0.68660000  0.46300000  0.08600000  1
  H  H195  1  0.87700000  0.96300000  0.77640000  1
  H  H196  1  0.12420000  0.33160000  0.38840000  1
  H  H197  1  0.44320000  0.83160000  0.20740000  1
  H  H198  1  0.62420000  0.73580000  0.29260000  1
  H  H199  1  0.94320000  0.23580000  0.11160000  1
  H  H200  1  0.19080000  0.43230000  0.54970000  1
  H  H201  1  0.38260000  0.93230000  0.24150000  1
  H  H202  1  0.69080000  0.64110000  0.25850000  1
  H  H203  1  0.88260000  0.14110000  0.95030000  1
  H  H204  1  0.25720000  0.63270000  0.78550000  1
  H  H205  1  0.34720000  0.13270000  0.37550000  1
  H  H206  1  0.75720000  0.47170000  0.12450000  1
  H  H207  1  0.84720000  0.97170000  0.71450000  1
  H  H208  1  0.26650000  0.39450000  0.55140000  1
  H  H209  1  0.34310000  0.89450000  0.12800000  1
  H  H210  1  0.76650000  0.71510000  0.37200000  1
  H  H211  1  0.84310000  0.21510000  0.94860000  1
  H  H212  1  0.14240000  0.32300000  0.33160000  1
  H  H213  1  0.49140000  0.82300000  0.18060000  1
  H  H214  1  0.64240000  0.81080000  0.31940000  1
  H  H215  1  0.99140000  0.31080000  0.16840000  1
  H  H216  1  0.10060000  0.22360000  0.18660000  1
  H  H217  1  0.53700000  0.72360000  0.12300000  1
  H  H218  1  0.60060000  0.91400000  0.37700000  1
  H  H219  1  0.03700000  0.41400000  0.31340000  1
  H  H220  1  0.30590000  0.92160000  0.08830000  1
  H  H221  1  0.33330000  0.42160000  0.61570000  1
  H  H222  1  0.80590000  0.21760000  0.88430000  1
  H  H223  1  0.83330000  0.71760000  0.41170000  1
  H  H224  1  0.31940000  0.14240000  0.31080000  1
  H  H225  1  0.33160000  0.64240000  0.82300000  1
  H  H226  1  0.81940000  0.00860000  0.67700000  1
  H  H227  1  0.83160000  0.50860000  0.18920000  1
  H  H228  1  0.13270000  0.28550000  0.25720000  1
  H  H229  1  0.52830000  0.78550000  0.15280000  1
  H  H230  1  0.63270000  0.87550000  0.34720000  1
  H  H231  1  0.02830000  0.37550000  0.24280000  1
  H  H232  1  0.29260000  0.12420000  0.23580000  1
  H  H233  1  0.38840000  0.62420000  0.83160000  1
  H  H234  1  0.79260000  0.05680000  0.66840000  1
  H  H235  1  0.88840000  0.55680000  0.26420000  1
  H  H236  1  0.14110000  0.75850000  0.69080000  1
  H  H237  1  0.56770000  0.25850000  0.61740000  1
  H  H238  1  0.64110000  0.45030000  0.88260000  1
  H  H239  1  0.06770000  0.95030000  0.80920000  1
  H  H240  1  0.21760000  0.91170000  0.83330000  1
  H  H241  1  0.57840000  0.41170000  0.69410000  1
  H  H242  1  0.71760000  0.38430000  0.80590000  1
  H  H243  1  0.07840000  0.88430000  0.66670000  1
  H  H244  1  0.25850000  0.19080000  0.14110000  1
  H  H245  1  0.54970000  0.69080000  0.93230000  1
  H  H246  1  0.75850000  0.11740000  0.56770000  1
  H  H247  1  0.04970000  0.61740000  0.35890000  1
  H  H248  1  0.22360000  0.62300000  0.53700000  1
  H  H249  1  0.58600000  0.12300000  0.39940000  1
  H  H250  1  0.72360000  0.68660000  0.10060000  1
  H  H251  1  0.08600000  0.18660000  0.96300000  1
  H  H252  1  0.21510000  0.87200000  0.76650000  1
  H  H253  1  0.60550000  0.37200000  0.65690000  1
  H  H254  1  0.71510000  0.44860000  0.84310000  1
  H  H255  1  0.10550000  0.94860000  0.73350000  1
  H  H256  1  0.23580000  0.79260000  0.62420000  1
  H  H257  1  0.66840000  0.29260000  0.55680000  1
  H  H258  1  0.73580000  0.61160000  0.94320000  1
  H  H259  1  0.16840000  0.11160000  0.87580000  1
  H  H260  1  0.28550000  0.65280000  0.52830000  1
  H  H261  1  0.62450000  0.15280000  0.36730000  1
  H  H262  1  0.78550000  0.75720000  0.13270000  1
  H  H263  1  0.12450000  0.25720000  0.97170000  1
  H  H264  1  0.37200000  0.26650000  0.21510000  1
  H  H265  1  0.55140000  0.76650000  0.89450000  1
  H  H266  1  0.87200000  0.15690000  0.60550000  1
  H  H267  1  0.05140000  0.65690000  0.28490000  1
  H  H268  1  0.38430000  0.16670000  0.07840000  1
  H  H269  1  0.58830000  0.66670000  0.78240000  1
  H  H270  1  0.88430000  0.30590000  0.71760000  1
  H  H271  1  0.08830000  0.80590000  0.42160000  1
  H  H272  1  0.31080000  0.81940000  0.64240000  1
  H  H273  1  0.67700000  0.31940000  0.50860000  1
  H  H274  1  0.81080000  0.66840000  0.99140000  1
  H  H275  1  0.17700000  0.16840000  0.85760000  1
  H  H276  1  0.32300000  0.68060000  0.49140000  1
  H  H277  1  0.68920000  0.18060000  0.35760000  1
  H  H278  1  0.82300000  0.83160000  0.14240000  1
  H  H279  1  0.18920000  0.33160000  0.00860000  1
  H  H280  1  0.41170000  0.33330000  0.21760000  1
  H  H281  1  0.61570000  0.83330000  0.92160000  1
  H  H282  1  0.91170000  0.19410000  0.57840000  1
  H  H283  1  0.11570000  0.69410000  0.28240000  1
  H  H284  1  0.44860000  0.23350000  0.10550000  1
  H  H285  1  0.62800000  0.73350000  0.78490000  1
  H  H286  1  0.94860000  0.34310000  0.71510000  1
  H  H287  1  0.12800000  0.84310000  0.39450000  1
  H  H288  1  0.37550000  0.84720000  0.63270000  1
  H  H289  1  0.71450000  0.34720000  0.47170000  1
  H  H290  1  0.87550000  0.74280000  0.02830000  1
  H  H291  1  0.21450000  0.24280000  0.86730000  1
  H  H292  1  0.33160000  0.70740000  0.44320000  1
  H  H293  1  0.76420000  0.20740000  0.37580000  1
  H  H294  1  0.83160000  0.88840000  0.12420000  1
  H  H295  1  0.26420000  0.38840000  0.05680000  1
  H  H296  1  0.39450000  0.62800000  0.34310000  1
  H  H297  1  0.78490000  0.12800000  0.23350000  1
  H  H298  1  0.89450000  0.05140000  0.26650000  1
  H  H299  1  0.28490000  0.55140000  0.15690000  1
  H  H300  1  0.41400000  0.87700000  0.60060000  1
  H  H301  1  0.77640000  0.37700000  0.46300000  1
  H  H302  1  0.91400000  0.81340000  0.03700000  1
  H  H303  1  0.27640000  0.31340000  0.89940000  1
  H  H304  1  0.45030000  0.30920000  0.06770000  1
  H  H305  1  0.74150000  0.80920000  0.85890000  1
  H  H306  1  0.95030000  0.38260000  0.64110000  1
  H  H307  1  0.24150000  0.88260000  0.43230000  1
  H  H308  1  0.42160000  0.58830000  0.30590000  1
  H  H309  1  0.78240000  0.08830000  0.16670000  1
  H  H310  1  0.92160000  0.11570000  0.33330000  1
  H  H311  1  0.28240000  0.61570000  0.19410000  1
  H  H312  1  0.43230000  0.74150000  0.38260000  1
  H  H313  1  0.85890000  0.24150000  0.30920000  1
  H  H314  1  0.93230000  0.04970000  0.19080000  1
  H  H315  1  0.35890000  0.54970000  0.11740000  1
  H  H316  1  0.61160000  0.37580000  0.16840000  1
  H  H317  1  0.70740000  0.87580000  0.76420000  1
  H  H318  1  0.11160000  0.44320000  0.73580000  1
  H  H319  1  0.20740000  0.94320000  0.33160000  1
  H  H320  1  0.47170000  0.21450000  0.84720000  1
  H  H321  1  0.86730000  0.71450000  0.74280000  1
  H  H322  1  0.97170000  0.62450000  0.75720000  1
  H  H323  1  0.36730000  0.12450000  0.65280000  1
  H  H324  1  0.66840000  0.35760000  0.17700000  1
  H  H325  1  0.68060000  0.85760000  0.68920000  1
  H  H326  1  0.16840000  0.49140000  0.81080000  1
  H  H327  1  0.18060000  0.99140000  0.32300000  1
  H  H328  1  0.66670000  0.57840000  0.38430000  1
  H  H329  1  0.69410000  0.07840000  0.91170000  1
  H  H330  1  0.16670000  0.28240000  0.58830000  1
  H  H331  1  0.19410000  0.78240000  0.11570000  1
  H  H332  1  0.46300000  0.27640000  0.87700000  1
  H  H333  1  0.89940000  0.77640000  0.81340000  1
  H  H334  1  0.96300000  0.58600000  0.68660000  1
  H  H335  1  0.39940000  0.08600000  0.62300000  1
  H  H336  1  0.50860000  0.17700000  0.81940000  1
  H  H337  1  0.85760000  0.67700000  0.66840000  1
  H  H338  1  0.00860000  0.68920000  0.83160000  1
  H  H339  1  0.35760000  0.18920000  0.68060000  1
  H  H340  1  0.65690000  0.10550000  0.87200000  1
  H  H341  1  0.73350000  0.60550000  0.44860000  1
  H  H342  1  0.15690000  0.78490000  0.05140000  1
  H  H343  1  0.23350000  0.28490000  0.62800000  1
  H  H344  1  0.65280000  0.86730000  0.62450000  1
  H  H345  1  0.74280000  0.36730000  0.21450000  1
  H  H346  1  0.15280000  0.02830000  0.28550000  1
  H  H347  1  0.24280000  0.52830000  0.87550000  1
  H  H348  1  0.61740000  0.06770000  0.75850000  1
  H  H349  1  0.80920000  0.56770000  0.45030000  1
  H  H350  1  0.11740000  0.85890000  0.04970000  1
  H  H351  1  0.30920000  0.35890000  0.74150000  1
  H  H352  1  0.55680000  0.16840000  0.79260000  1
  H  H353  1  0.87580000  0.66840000  0.61160000  1
  H  H354  1  0.05680000  0.76420000  0.88840000  1
  H  H355  1  0.37580000  0.26420000  0.70740000  1
  H  H356  1  0.62300000  0.89940000  0.58600000  1
  H  H357  1  0.81340000  0.39940000  0.27640000  1
  H  H358  1  0.12300000  0.03700000  0.22360000  1
  H  H359  1  0.31340000  0.53700000  0.91400000  1
  N  N360  1  0.11610000  0.30590000  0.34700000  1
  N  N361  1  0.45890000  0.80590000  0.18980000  1
  N  N362  1  0.61610000  0.76910000  0.31020000  1
  N  N363  1  0.95890000  0.26910000  0.15300000  1
  N  N364  1  0.22690000  0.60320000  0.74170000  1
  N  N365  1  0.36150000  0.10320000  0.37630000  1
  N  N366  1  0.72690000  0.48520000  0.12370000  1
  N  N367  1  0.86150000  0.98520000  0.75830000  1
  N  N368  1  0.10320000  0.24170000  0.22690000  1
  N  N369  1  0.51480000  0.74170000  0.13850000  1
  N  N370  1  0.60320000  0.87630000  0.36150000  1
  N  N371  1  0.01480000  0.37630000  0.27310000  1
  N  N372  1  0.29540000  0.42250000  0.59570000  1
  N  N373  1  0.32680000  0.92250000  0.12710000  1
  N  N374  1  0.79540000  0.69970000  0.37290000  1
  N  N375  1  0.82680000  0.19970000  0.90430000  1
  N  N376  1  0.31020000  0.11610000  0.26910000  1
  N  N377  1  0.34700000  0.61610000  0.80590000  1
  N  N378  1  0.81020000  0.04110000  0.69410000  1
  N  N379  1  0.84700000  0.54110000  0.23090000  1
  N  N380  1  0.19970000  0.87290000  0.79540000  1
  N  N381  1  0.57750000  0.37290000  0.67320000  1
  N  N382  1  0.69970000  0.40430000  0.82680000  1
  N  N383  1  0.07750000  0.90430000  0.70460000  1
  N  N384  1  0.24170000  0.63850000  0.51480000  1
  N  N385  1  0.62370000  0.13850000  0.39680000  1
  N  N386  1  0.74170000  0.72690000  0.10320000  1
  N  N387  1  0.12370000  0.22690000  0.98520000  1
  N  N388  1  0.26910000  0.81020000  0.61610000  1
  N  N389  1  0.69410000  0.31020000  0.54110000  1
  N  N390  1  0.76910000  0.65300000  0.95890000  1
  N  N391  1  0.19410000  0.15300000  0.88390000  1
  N  N392  1  0.37290000  0.29540000  0.19970000  1
  N  N393  1  0.59570000  0.79540000  0.92250000  1
  N  N394  1  0.87290000  0.17320000  0.57750000  1
  N  N395  1  0.09570000  0.67320000  0.30030000  1
  N  N396  1  0.40430000  0.20460000  0.07750000  1
  N  N397  1  0.62710000  0.70460000  0.80030000  1
  N  N398  1  0.90430000  0.32680000  0.69970000  1
  N  N399  1  0.12710000  0.82680000  0.42250000  1
  N  N400  1  0.30590000  0.68980000  0.45890000  1
  N  N401  1  0.73090000  0.18980000  0.38390000  1
  N  N402  1  0.80590000  0.84700000  0.11610000  1
  N  N403  1  0.23090000  0.34700000  0.04110000  1
  N  N404  1  0.37630000  0.86150000  0.60320000  1
  N  N405  1  0.75830000  0.36150000  0.48520000  1
  N  N406  1  0.87630000  0.77310000  0.01480000  1
  N  N407  1  0.25830000  0.27310000  0.89680000  1
  N  N408  1  0.42250000  0.62710000  0.32680000  1
  N  N409  1  0.80030000  0.12710000  0.20460000  1
  N  N410  1  0.92250000  0.09570000  0.29540000  1
  N  N411  1  0.30030000  0.59570000  0.17320000  1
  N  N412  1  0.65300000  0.38390000  0.19410000  1
  N  N413  1  0.68980000  0.88390000  0.73090000  1
  N  N414  1  0.15300000  0.45890000  0.76910000  1
  N  N415  1  0.18980000  0.95890000  0.30590000  1
  N  N416  1  0.67320000  0.07750000  0.87290000  1
  N  N417  1  0.70460000  0.57750000  0.40430000  1
  N  N418  1  0.17320000  0.80030000  0.09570000  1
  N  N419  1  0.20460000  0.30030000  0.62710000  1
  N  N420  1  0.48520000  0.25830000  0.86150000  1
  N  N421  1  0.89680000  0.75830000  0.77310000  1
  N  N422  1  0.98520000  0.62370000  0.72690000  1
  N  N423  1  0.39680000  0.12370000  0.63850000  1
  N  N424  1  0.63850000  0.89680000  0.62370000  1
  N  N425  1  0.77310000  0.39680000  0.25830000  1
  N  N426  1  0.13850000  0.01480000  0.24170000  1
  N  N427  1  0.27310000  0.51480000  0.87630000  1
  N  N428  1  0.54110000  0.19410000  0.81020000  1
  N  N429  1  0.88390000  0.69410000  0.65300000  1
  N  N430  1  0.04110000  0.73090000  0.84700000  1
  N  N431  1  0.38390000  0.23090000  0.68980000  1
  Nd  Nd432  1  0.00000000  0.00000000  0.00000000  1
  Nd  Nd433  1  0.00000000  0.50000000  0.50000000  1
  Nd  Nd434  1  0.50000000  1.00000000  0.50000000  1
  Nd  Nd435  1  0.50000000  0.50000000  0.00000000  1
  Nd  Nd436  1  0.16950000  1.00000000  1.00000000  1
  Nd  Nd437  1  0.50000000  0.50000000  0.83050000  1
  Nd  Nd438  1  0.66950000  0.16950000  0.66950000  1
  Nd  Nd439  1  1.00000000  0.66950000  0.50000000  1
  Nd  Nd440  1  0.50000000  0.50000000  0.16950000  1
  Nd  Nd441  1  0.83050000  1.00000000  1.00000000  1
  Nd  Nd442  1  0.00000000  0.33050000  0.50000000  1
  Nd  Nd443  1  0.33050000  0.83050000  0.33050000  1
  O  O444  1  0.08450000  0.44800000  0.53030000  1
  O  O445  1  0.41770000  0.94800000  0.36350000  1
  O  O446  1  0.58450000  0.55420000  0.13650000  1
  O  O447  1  0.91770000  0.05420000  0.96970000  1
  O  O448  1  0.05180000  0.11130000  0.11990000  1
  O  O449  1  0.49140000  0.61130000  0.05950000  1
  O  O450  1  0.55180000  0.93190000  0.44050000  1
  O  O451  1  0.99140000  0.43190000  0.38010000  1
  O  O452  1  0.11190000  0.86940000  0.92430000  1
  O  O453  1  0.44510000  0.36940000  0.75750000  1
  O  O454  1  0.61190000  0.18760000  0.74250000  1
  O  O455  1  0.94510000  0.68760000  0.57570000  1
  O  O456  1  0.11990000  0.55180000  0.61130000  1
  O  O457  1  0.44050000  0.05180000  0.43190000  1
  O  O458  1  0.61990000  0.50860000  0.06810000  1
  O  O459  1  0.94050000  0.00860000  0.88870000  1
  O  O460  1  0.05420000  0.63650000  0.58450000  1
  O  O461  1  0.55200000  0.13650000  0.58230000  1
  O  O462  1  0.55420000  0.46970000  0.91770000  1
  O  O463  1  0.05200000  0.96970000  0.91550000  1
  O  O464  1  0.25450000  0.97250000  0.06660000  1
  O  O465  1  0.40590000  0.47250000  0.71800000  1
  O  O466  1  0.75450000  0.18790000  0.78200000  1
  O  O467  1  0.90590000  0.68790000  0.43340000  1
  O  O468  1  0.13650000  0.08450000  0.05420000  1
  O  O469  1  0.24250000  0.05490000  0.13060000  1
  O  O470  1  0.42430000  0.55490000  0.81240000  1
  O  O471  1  0.53030000  0.58450000  0.94800000  1
  O  O472  1  0.63650000  0.08230000  0.55200000  1
  O  O473  1  0.74250000  0.11190000  0.68760000  1
  O  O474  1  0.92430000  0.61190000  0.36940000  1
  O  O475  1  0.03030000  0.58230000  0.44580000  1
  O  O476  1  0.11130000  0.55950000  0.49140000  1
  O  O477  1  0.56810000  0.05950000  0.44820000  1
  O  O478  1  0.61130000  0.61990000  0.05180000  1
  O  O479  1  0.06810000  0.11990000  0.00860000  1
  O  O480  1  0.18790000  0.93340000  0.90590000  1
  O  O481  1  0.52750000  0.43340000  0.74550000  1
  O  O482  1  0.68790000  0.28200000  0.75450000  1
  O  O483  1  0.02750000  0.78200000  0.59410000  1
  O  O484  1  0.18760000  0.07570000  0.94510000  1
  O  O485  1  0.63060000  0.57570000  0.88810000  1
  O  O486  1  0.68760000  0.24250000  0.61190000  1
  O  O487  1  0.13060000  0.74250000  0.55490000  1
  O  O488  1  0.28200000  0.09410000  0.02750000  1
  O  O489  1  0.56660000  0.59410000  0.81210000  1
  O  O490  1  0.78200000  0.25450000  0.68790000  1
  O  O491  1  0.06660000  0.75450000  0.47250000  1
  O  O492  1  0.43340000  0.40590000  0.18790000  1
  O  O493  1  0.71800000  0.90590000  0.97250000  1
  O  O494  1  0.93340000  0.24550000  0.52750000  1
  O  O495  1  0.21800000  0.74550000  0.31210000  1
  O  O496  1  0.36940000  0.42430000  0.11190000  1
  O  O497  1  0.81240000  0.92430000  0.05490000  1
  O  O498  1  0.86940000  0.25750000  0.44510000  1
  O  O499  1  0.31240000  0.75750000  0.38810000  1
  O  O500  1  0.47250000  0.56660000  0.25450000  1
  O  O501  1  0.81210000  0.06660000  0.09410000  1
  O  O502  1  0.97250000  0.21800000  0.40590000  1
  O  O503  1  0.31210000  0.71800000  0.24550000  1
  O  O504  1  0.43190000  0.94050000  0.55180000  1
  O  O505  1  0.88870000  0.44050000  0.50860000  1
  O  O506  1  0.93190000  0.88010000  0.99140000  1
  O  O507  1  0.38870000  0.38010000  0.94820000  1
  O  O508  1  0.46970000  0.41550000  0.05200000  1
  O  O509  1  0.57570000  0.44510000  0.18760000  1
  O  O510  1  0.75750000  0.94510000  0.86940000  1
  O  O511  1  0.86350000  0.91550000  0.94580000  1
  O  O512  1  0.96970000  0.41770000  0.55420000  1
  O  O513  1  0.07570000  0.38810000  0.63060000  1
  O  O514  1  0.25750000  0.88810000  0.31240000  1
  O  O515  1  0.36350000  0.91770000  0.44800000  1
  O  O516  1  0.59410000  0.52750000  0.28200000  1
  O  O517  1  0.74550000  0.02750000  0.93340000  1
  O  O518  1  0.09410000  0.31210000  0.56660000  1
  O  O519  1  0.24550000  0.81210000  0.21800000  1
  O  O520  1  0.44800000  0.86350000  0.41770000  1
  O  O521  1  0.94580000  0.36350000  0.41550000  1
  O  O522  1  0.94800000  0.03030000  0.08450000  1
  O  O523  1  0.44580000  0.53030000  0.08230000  1
  O  O524  1  0.55950000  0.94820000  0.56810000  1
  O  O525  1  0.88010000  0.44820000  0.38870000  1
  O  O526  1  0.05950000  0.99140000  0.11130000  1
  O  O527  1  0.38010000  0.49140000  0.93190000  1
  O  O528  1  0.55490000  0.63060000  0.24250000  1
  O  O529  1  0.88810000  0.13060000  0.07570000  1
  O  O530  1  0.05490000  0.31240000  0.42430000  1
  O  O531  1  0.38810000  0.81240000  0.25750000  1
  O  O532  1  0.50860000  0.38870000  0.94050000  1
  O  O533  1  0.94820000  0.88870000  0.88010000  1
  O  O534  1  0.00860000  0.56810000  0.61990000  1
  O  O535  1  0.44820000  0.06810000  0.55950000  1
  O  O536  1  0.58230000  0.05200000  0.63650000  1
  O  O537  1  0.91550000  0.55200000  0.46970000  1
  O  O538  1  0.08230000  0.94580000  0.03030000  1
  O  O539  1  0.41550000  0.44580000  0.86350000  1
