# generated using pymatgen
data_Cu6H22C55N9O26
_symmetry_space_group_name_H-M   'P 1'
_cell_length_a   26.97680000
_cell_length_b   26.97680000
_cell_length_c   39.20600000
_cell_angle_alpha   90.00000000
_cell_angle_beta   90.00000000
_cell_angle_gamma   90.00000000
_symmetry_Int_Tables_number   1
_chemical_formula_structural   Cu6H22C55N9O26
_chemical_formula_sum   'Cu48 H176 C440 N72 O208'
_cell_volume   28532.07782544
_cell_formula_units_Z   8
loop_
 _symmetry_equiv_pos_site_id
 _symmetry_equiv_pos_as_xyz
  1  'x, y, z'
loop_
 _atom_site_type_symbol
 _atom_site_label
 _atom_site_symmetry_multiplicity
 _atom_site_fract_x
 _atom_site_fract_y
 _atom_site_fract_z
 _atom_site_occupancy
  Cu  Cu0  1  0.08516000  0.72658000  0.50000000  1
  Cu  Cu1  1  0.09332000  0.18407000  0.34926000  1
  Cu  Cu2  1  0.09332000  0.18407000  0.65074000  1
  Cu  Cu3  1  0.11560000  0.63265000  0.50000000  1
  Cu  Cu4  1  0.12650000  0.24749000  0.30212000  1
  Cu  Cu5  1  0.12650000  0.24749000  0.69788000  1
  Cu  Cu6  1  0.13265000  0.61560000  0.00000000  1
  Cu  Cu7  1  0.18407000  0.90668000  0.34926000  1
  Cu  Cu8  1  0.18407000  0.90668000  0.65074000  1
  Cu  Cu9  1  0.22658000  0.58516000  0.00000000  1
  Cu  Cu10  1  0.24749000  0.87350000  0.30212000  1
  Cu  Cu11  1  0.24749000  0.87350000  0.69788000  1
  Cu  Cu12  1  0.25251000  0.37350000  0.19788000  1
  Cu  Cu13  1  0.25251000  0.37350000  0.80212000  1
  Cu  Cu14  1  0.27342000  0.08516000  0.50000000  1
  Cu  Cu15  1  0.31593000  0.40668000  0.15074000  1
  Cu  Cu16  1  0.31593000  0.40668000  0.84926000  1
  Cu  Cu17  1  0.36735000  0.11560000  0.50000000  1
  Cu  Cu18  1  0.37350000  0.74749000  0.19788000  1
  Cu  Cu19  1  0.37350000  0.74749000  0.80212000  1
  Cu  Cu20  1  0.38440000  0.13265000  0.00000000  1
  Cu  Cu21  1  0.40668000  0.68407000  0.15074000  1
  Cu  Cu22  1  0.40668000  0.68407000  0.84926000  1
  Cu  Cu23  1  0.41484000  0.22658000  0.00000000  1
  Cu  Cu24  1  0.58516000  0.77342000  0.00000000  1
  Cu  Cu25  1  0.59332000  0.31593000  0.15074000  1
  Cu  Cu26  1  0.59332000  0.31593000  0.84926000  1
  Cu  Cu27  1  0.61560000  0.86735000  0.00000000  1
  Cu  Cu28  1  0.62650000  0.25251000  0.19788000  1
  Cu  Cu29  1  0.62650000  0.25251000  0.80212000  1
  Cu  Cu30  1  0.63265000  0.88440000  0.50000000  1
  Cu  Cu31  1  0.68407000  0.59332000  0.15074000  1
  Cu  Cu32  1  0.68407000  0.59332000  0.84926000  1
  Cu  Cu33  1  0.72658000  0.91484000  0.50000000  1
  Cu  Cu34  1  0.74749000  0.62650000  0.19788000  1
  Cu  Cu35  1  0.74749000  0.62650000  0.80212000  1
  Cu  Cu36  1  0.75251000  0.12650000  0.30212000  1
  Cu  Cu37  1  0.75251000  0.12650000  0.69788000  1
  Cu  Cu38  1  0.77342000  0.41484000  0.00000000  1
  Cu  Cu39  1  0.81593000  0.09332000  0.34926000  1
  Cu  Cu40  1  0.81593000  0.09332000  0.65074000  1
  Cu  Cu41  1  0.86735000  0.38440000  0.00000000  1
  Cu  Cu42  1  0.87350000  0.75251000  0.30212000  1
  Cu  Cu43  1  0.87350000  0.75251000  0.69788000  1
  Cu  Cu44  1  0.88440000  0.36735000  0.50000000  1
  Cu  Cu45  1  0.90668000  0.81593000  0.34926000  1
  Cu  Cu46  1  0.90668000  0.81593000  0.65074000  1
  Cu  Cu47  1  0.91484000  0.27342000  0.50000000  1
  H  H48  1  0.00000000  0.50000000  0.09270000  1
  H  H49  1  0.00000000  0.50000000  0.40730000  1
  H  H50  1  0.00000000  0.50000000  0.59270000  1
  H  H51  1  0.00000000  0.50000000  0.90730000  1
  H  H52  1  0.00120000  0.76350000  0.22970000  1
  H  H53  1  0.00120000  0.76350000  0.77030000  1
  H  H54  1  0.01860000  0.28370000  0.41360000  1
  H  H55  1  0.01860000  0.28370000  0.58640000  1
  H  H56  1  0.03020000  0.57600000  0.41960000  1
  H  H57  1  0.03020000  0.57600000  0.58040000  1
  H  H58  1  0.04920000  0.83850000  0.31180000  1
  H  H59  1  0.04920000  0.83850000  0.68820000  1
  H  H60  1  0.05420000  0.38230000  0.34060000  1
  H  H61  1  0.05420000  0.38230000  0.65940000  1
  H  H62  1  0.07600000  0.53020000  0.08040000  1
  H  H63  1  0.07600000  0.53020000  0.91960000  1
  H  H64  1  0.11770000  0.44580000  0.15940000  1
  H  H65  1  0.11770000  0.44580000  0.84060000  1
  H  H66  1  0.13350000  0.70200000  0.08890000  1
  H  H67  1  0.13350000  0.70200000  0.91110000  1
  H  H68  1  0.14190000  0.80970000  0.23480000  1
  H  H69  1  0.14190000  0.80970000  0.76520000  1
  H  H70  1  0.15920000  0.76620000  0.19300000  1
  H  H71  1  0.15920000  0.76620000  0.80700000  1
  H  H72  1  0.16150000  0.04920000  0.31180000  1
  H  H73  1  0.16150000  0.04920000  0.68820000  1
  H  H74  1  0.18140000  0.78090000  0.41850000  1
  H  H75  1  0.18140000  0.78090000  0.58150000  1
  H  H76  1  0.19030000  0.14190000  0.23480000  1
  H  H77  1  0.19030000  0.14190000  0.76520000  1
  H  H78  1  0.20200000  0.63350000  0.41110000  1
  H  H79  1  0.20200000  0.63350000  0.58890000  1
  H  H80  1  0.21360000  0.28640000  0.25000000  1
  H  H81  1  0.21360000  0.28640000  0.75000000  1
  H  H82  1  0.21630000  0.48140000  0.08640000  1
  H  H83  1  0.21630000  0.48140000  0.91360000  1
  H  H84  1  0.21910000  0.18140000  0.41850000  1
  H  H85  1  0.21910000  0.18140000  0.58150000  1
  H  H86  1  0.22310000  0.74870000  0.16390000  1
  H  H87  1  0.22310000  0.74870000  0.83610000  1
  H  H88  1  0.23380000  0.15920000  0.19300000  1
  H  H89  1  0.23380000  0.15920000  0.80700000  1
  H  H90  1  0.23650000  0.00120000  0.22970000  1
  H  H91  1  0.23650000  0.00120000  0.77030000  1
  H  H92  1  0.24870000  0.72310000  0.33610000  1
  H  H93  1  0.24870000  0.72310000  0.66390000  1
  H  H94  1  0.25130000  0.22310000  0.16390000  1
  H  H95  1  0.25130000  0.22310000  0.83610000  1
  H  H96  1  0.26350000  0.50120000  0.27030000  1
  H  H97  1  0.26350000  0.50120000  0.72970000  1
  H  H98  1  0.26620000  0.65920000  0.30700000  1
  H  H99  1  0.26620000  0.65920000  0.69300000  1
  H  H100  1  0.27690000  0.24870000  0.33610000  1
  H  H101  1  0.27690000  0.24870000  0.66390000  1
  H  H102  1  0.28090000  0.68140000  0.08150000  1
  H  H103  1  0.28090000  0.68140000  0.91850000  1
  H  H104  1  0.28370000  0.98140000  0.41360000  1
  H  H105  1  0.28370000  0.98140000  0.58640000  1
  H  H106  1  0.28640000  0.78640000  0.25000000  1
  H  H107  1  0.28640000  0.78640000  0.75000000  1
  H  H108  1  0.29800000  0.13350000  0.08890000  1
  H  H109  1  0.29800000  0.13350000  0.91110000  1
  H  H110  1  0.30970000  0.64190000  0.26520000  1
  H  H111  1  0.30970000  0.64190000  0.73480000  1
  H  H112  1  0.31860000  0.28090000  0.08150000  1
  H  H113  1  0.31860000  0.28090000  0.91850000  1
  H  H114  1  0.33850000  0.54920000  0.18820000  1
  H  H115  1  0.33850000  0.54920000  0.81180000  1
  H  H116  1  0.34080000  0.26620000  0.30700000  1
  H  H117  1  0.34080000  0.26620000  0.69300000  1
  H  H118  1  0.35810000  0.30970000  0.26520000  1
  H  H119  1  0.35810000  0.30970000  0.73480000  1
  H  H120  1  0.36650000  0.20200000  0.41110000  1
  H  H121  1  0.36650000  0.20200000  0.58890000  1
  H  H122  1  0.38230000  0.94580000  0.34060000  1
  H  H123  1  0.38230000  0.94580000  0.65940000  1
  H  H124  1  0.42400000  0.03020000  0.41960000  1
  H  H125  1  0.42400000  0.03020000  0.58040000  1
  H  H126  1  0.44580000  0.88230000  0.15940000  1
  H  H127  1  0.44580000  0.88230000  0.84060000  1
  H  H128  1  0.45080000  0.33850000  0.18820000  1
  H  H129  1  0.45080000  0.33850000  0.81180000  1
  H  H130  1  0.46980000  0.07600000  0.08040000  1
  H  H131  1  0.46980000  0.07600000  0.91960000  1
  H  H132  1  0.48140000  0.78370000  0.08640000  1
  H  H133  1  0.48140000  0.78370000  0.91360000  1
  H  H134  1  0.49880000  0.26350000  0.27030000  1
  H  H135  1  0.49880000  0.26350000  0.72970000  1
  H  H136  1  0.50000000  0.00000000  0.09270000  1
  H  H137  1  0.50000000  0.00000000  0.40730000  1
  H  H138  1  0.50000000  0.00000000  0.59270000  1
  H  H139  1  0.50000000  0.00000000  0.90730000  1
  H  H140  1  0.50120000  0.73650000  0.27030000  1
  H  H141  1  0.50120000  0.73650000  0.72970000  1
  H  H142  1  0.51860000  0.21630000  0.08640000  1
  H  H143  1  0.51860000  0.21630000  0.91360000  1
  H  H144  1  0.53020000  0.92400000  0.08040000  1
  H  H145  1  0.53020000  0.92400000  0.91960000  1
  H  H146  1  0.54920000  0.66150000  0.18820000  1
  H  H147  1  0.54920000  0.66150000  0.81180000  1
  H  H148  1  0.55420000  0.11770000  0.15940000  1
  H  H149  1  0.55420000  0.11770000  0.84060000  1
  H  H150  1  0.57600000  0.96980000  0.41960000  1
  H  H151  1  0.57600000  0.96980000  0.58040000  1
  H  H152  1  0.61770000  0.05420000  0.34060000  1
  H  H153  1  0.61770000  0.05420000  0.65940000  1
  H  H154  1  0.63350000  0.79800000  0.41110000  1
  H  H155  1  0.63350000  0.79800000  0.58890000  1
  H  H156  1  0.64190000  0.69030000  0.26520000  1
  H  H157  1  0.64190000  0.69030000  0.73480000  1
  H  H158  1  0.65920000  0.73380000  0.30700000  1
  H  H159  1  0.65920000  0.73380000  0.69300000  1
  H  H160  1  0.66150000  0.45080000  0.18820000  1
  H  H161  1  0.66150000  0.45080000  0.81180000  1
  H  H162  1  0.68140000  0.71910000  0.08150000  1
  H  H163  1  0.68140000  0.71910000  0.91850000  1
  H  H164  1  0.69030000  0.35810000  0.26520000  1
  H  H165  1  0.69030000  0.35810000  0.73480000  1
  H  H166  1  0.70200000  0.86650000  0.08890000  1
  H  H167  1  0.70200000  0.86650000  0.91110000  1
  H  H168  1  0.71360000  0.21360000  0.25000000  1
  H  H169  1  0.71360000  0.21360000  0.75000000  1
  H  H170  1  0.71630000  0.01860000  0.41360000  1
  H  H171  1  0.71630000  0.01860000  0.58640000  1
  H  H172  1  0.71910000  0.31860000  0.08150000  1
  H  H173  1  0.71910000  0.31860000  0.91850000  1
  H  H174  1  0.72310000  0.75130000  0.33610000  1
  H  H175  1  0.72310000  0.75130000  0.66390000  1
  H  H176  1  0.73380000  0.34080000  0.30700000  1
  H  H177  1  0.73380000  0.34080000  0.69300000  1
  H  H178  1  0.73650000  0.49880000  0.27030000  1
  H  H179  1  0.73650000  0.49880000  0.72970000  1
  H  H180  1  0.74870000  0.77690000  0.16390000  1
  H  H181  1  0.74870000  0.77690000  0.83610000  1
  H  H182  1  0.75130000  0.27690000  0.33610000  1
  H  H183  1  0.75130000  0.27690000  0.66390000  1
  H  H184  1  0.76350000  0.99880000  0.22970000  1
  H  H185  1  0.76350000  0.99880000  0.77030000  1
  H  H186  1  0.76620000  0.84080000  0.19300000  1
  H  H187  1  0.76620000  0.84080000  0.80700000  1
  H  H188  1  0.77690000  0.25130000  0.16390000  1
  H  H189  1  0.77690000  0.25130000  0.83610000  1
  H  H190  1  0.78090000  0.81860000  0.41850000  1
  H  H191  1  0.78090000  0.81860000  0.58150000  1
  H  H192  1  0.78370000  0.51860000  0.08640000  1
  H  H193  1  0.78370000  0.51860000  0.91360000  1
  H  H194  1  0.78640000  0.71360000  0.25000000  1
  H  H195  1  0.78640000  0.71360000  0.75000000  1
  H  H196  1  0.79800000  0.36650000  0.41110000  1
  H  H197  1  0.79800000  0.36650000  0.58890000  1
  H  H198  1  0.80970000  0.85810000  0.23480000  1
  H  H199  1  0.80970000  0.85810000  0.76520000  1
  H  H200  1  0.81860000  0.21910000  0.41850000  1
  H  H201  1  0.81860000  0.21910000  0.58150000  1
  H  H202  1  0.83850000  0.95080000  0.31180000  1
  H  H203  1  0.83850000  0.95080000  0.68820000  1
  H  H204  1  0.84080000  0.23380000  0.19300000  1
  H  H205  1  0.84080000  0.23380000  0.80700000  1
  H  H206  1  0.85810000  0.19030000  0.23480000  1
  H  H207  1  0.85810000  0.19030000  0.76520000  1
  H  H208  1  0.86650000  0.29800000  0.08890000  1
  H  H209  1  0.86650000  0.29800000  0.91110000  1
  H  H210  1  0.88230000  0.55420000  0.15940000  1
  H  H211  1  0.88230000  0.55420000  0.84060000  1
  H  H212  1  0.92400000  0.46980000  0.08040000  1
  H  H213  1  0.92400000  0.46980000  0.91960000  1
  H  H214  1  0.94580000  0.61770000  0.34060000  1
  H  H215  1  0.94580000  0.61770000  0.65940000  1
  H  H216  1  0.95080000  0.16150000  0.31180000  1
  H  H217  1  0.95080000  0.16150000  0.68820000  1
  H  H218  1  0.96980000  0.42400000  0.41960000  1
  H  H219  1  0.96980000  0.42400000  0.58040000  1
  H  H220  1  0.98140000  0.71630000  0.41360000  1
  H  H221  1  0.98140000  0.71630000  0.58640000  1
  H  H222  1  0.99880000  0.23650000  0.22970000  1
  H  H223  1  0.99880000  0.23650000  0.77030000  1
  C  C224  1  0.00581000  0.46130000  0.36492000  1
  C  C225  1  0.00581000  0.46130000  0.63508000  1
  C  C226  1  0.01052000  0.41000000  0.37789000  1
  C  C227  1  0.01052000  0.41000000  0.62211000  1
  C  C228  1  0.01109000  0.64833000  0.42174000  1
  C  C229  1  0.01109000  0.64833000  0.57826000  1
  C  C230  1  0.01290000  0.60080000  0.40812000  1
  C  C231  1  0.01290000  0.60080000  0.59188000  1
  C  C232  1  0.01666000  0.31556000  0.40464000  1
  C  C233  1  0.01666000  0.31556000  0.59536000  1
  C  C234  1  0.01748000  0.79951000  0.27314000  1
  C  C235  1  0.01748000  0.79951000  0.72686000  1
  C  C236  1  0.02635000  0.77987000  0.24136000  1
  C  C237  1  0.02635000  0.77987000  0.75864000  1
  C  C238  1  0.03169000  0.20709000  0.29096000  1
  C  C239  1  0.03169000  0.20709000  0.70904000  1
  C  C240  1  0.03807000  0.37447000  0.36088000  1
  C  C241  1  0.03807000  0.37447000  0.63912000  1
  C  C242  1  0.03870000  0.49419000  0.13508000  1
  C  C243  1  0.03870000  0.49419000  0.86492000  1
  C  C244  1  0.04032000  0.66055000  0.45278000  1
  C  C245  1  0.04032000  0.66055000  0.54722000  1
  C  C246  1  0.04130000  0.32673000  0.37456000  1
  C  C247  1  0.04130000  0.32673000  0.62544000  1
  C  C248  1  0.05541000  0.82442000  0.29058000  1
  C  C249  1  0.05541000  0.82442000  0.70942000  1
  C  C250  1  0.06946000  0.28683000  0.35636000  1
  C  C251  1  0.06946000  0.28683000  0.64364000  1
  C  C252  1  0.07353000  0.78463000  0.22646000  1
  C  C253  1  0.07353000  0.78463000  0.77354000  1
  C  C254  1  0.08637000  0.76600000  0.19265000  1
  C  C255  1  0.08637000  0.76600000  0.80735000  1
  C  C256  1  0.09000000  0.48948000  0.12211000  1
  C  C257  1  0.09000000  0.48948000  0.87789000  1
  C  C258  1  0.10080000  0.51290000  0.09188000  1
  C  C259  1  0.10080000  0.51290000  0.90812000  1
  C  C260  1  0.10209000  0.82800000  0.27623000  1
  C  C261  1  0.10209000  0.82800000  0.72377000  1
  C  C262  1  0.11043000  0.80768000  0.24435000  1
  C  C263  1  0.11043000  0.80768000  0.75565000  1
  C  C264  1  0.12553000  0.46193000  0.13912000  1
  C  C265  1  0.12553000  0.46193000  0.86088000  1
  C  C266  1  0.12907000  0.74170000  0.15075000  1
  C  C267  1  0.12907000  0.74170000  0.84925000  1
  C  C268  1  0.14310000  0.85286000  0.29538000  1
  C  C269  1  0.14310000  0.85286000  0.70462000  1
  C  C270  1  0.14714000  0.14310000  0.29538000  1
  C  C271  1  0.14714000  0.14310000  0.70462000  1
  C  C272  1  0.14833000  0.51109000  0.07826000  1
  C  C273  1  0.14833000  0.51109000  0.92174000  1
  C  C274  1  0.15942000  0.69794000  0.45238000  1
  C  C275  1  0.15942000  0.69794000  0.54762000  1
  C  C276  1  0.16055000  0.54032000  0.04722000  1
  C  C277  1  0.16055000  0.54032000  0.95278000  1
  C  C278  1  0.16513000  0.70524000  0.09807000  1
  C  C279  1  0.16513000  0.70524000  0.90193000  1
  C  C280  1  0.17157000  0.72718000  0.13008000  1
  C  C281  1  0.17157000  0.72718000  0.86992000  1
  C  C282  1  0.17200000  0.10209000  0.27623000  1
  C  C283  1  0.17200000  0.10209000  0.72377000  1
  C  C284  1  0.17327000  0.45870000  0.12544000  1
  C  C285  1  0.17327000  0.45870000  0.87456000  1
  C  C286  1  0.17558000  0.05541000  0.29058000  1
  C  C287  1  0.17558000  0.05541000  0.70942000  1
  C  C288  1  0.18444000  0.48334000  0.09536000  1
  C  C289  1  0.18444000  0.48334000  0.90464000  1
  C  C290  1  0.18819000  0.70639000  0.42013000  1
  C  C291  1  0.18819000  0.70639000  0.57987000  1
  C  C292  1  0.18927000  0.31073000  0.25000000  1
  C  C293  1  0.18927000  0.31073000  0.75000000  1
  C  C294  1  0.18961000  0.21969000  0.35904000  1
  C  C295  1  0.18961000  0.21969000  0.64096000  1
  C  C296  1  0.19232000  0.11043000  0.24435000  1
  C  C297  1  0.19232000  0.11043000  0.75565000  1
  C  C298  1  0.19341000  0.75359000  0.40656000  1
  C  C299  1  0.19341000  0.75359000  0.59344000  1
  C  C300  1  0.19794000  0.65942000  0.04762000  1
  C  C301  1  0.19794000  0.65942000  0.95238000  1
  C  C302  1  0.20049000  0.01748000  0.27314000  1
  C  C303  1  0.20049000  0.01748000  0.72686000  1
  C  C304  1  0.20524000  0.66513000  0.40193000  1
  C  C305  1  0.20524000  0.66513000  0.59807000  1
  C  C306  1  0.20639000  0.68819000  0.07987000  1
  C  C307  1  0.20639000  0.68819000  0.92013000  1
  C  C308  1  0.20709000  0.96831000  0.29096000  1
  C  C309  1  0.20709000  0.96831000  0.70904000  1
  C  C310  1  0.21317000  0.43054000  0.14364000  1
  C  C311  1  0.21317000  0.43054000  0.85636000  1
  C  C312  1  0.21537000  0.07353000  0.22646000  1
  C  C313  1  0.21537000  0.07353000  0.77354000  1
  C  C314  1  0.21670000  0.76018000  0.37500000  1
  C  C315  1  0.21670000  0.76018000  0.62500000  1
  C  C316  1  0.21878000  0.73325000  0.14286000  1
  C  C317  1  0.21878000  0.73325000  0.85714000  1
  C  C318  1  0.21969000  0.81039000  0.35904000  1
  C  C319  1  0.21969000  0.81039000  0.64096000  1
  C  C320  1  0.22013000  0.02635000  0.24136000  1
  C  C321  1  0.22013000  0.02635000  0.75864000  1
  C  C322  1  0.22718000  0.67157000  0.36992000  1
  C  C323  1  0.22718000  0.67157000  0.63008000  1
  C  C324  1  0.23325000  0.71878000  0.35714000  1
  C  C325  1  0.23325000  0.71878000  0.64286000  1
  C  C326  1  0.23400000  0.08637000  0.19265000  1
  C  C327  1  0.23400000  0.08637000  0.80735000  1
  C  C328  1  0.23982000  0.21670000  0.37500000  1
  C  C329  1  0.23982000  0.21670000  0.62500000  1
  C  C330  1  0.24170000  0.62907000  0.34925000  1
  C  C331  1  0.24170000  0.62907000  0.65075000  1
  C  C332  1  0.24641000  0.19341000  0.40656000  1
  C  C333  1  0.24641000  0.19341000  0.59344000  1
  C  C334  1  0.25359000  0.69341000  0.09344000  1
  C  C335  1  0.25359000  0.69341000  0.90656000  1
  C  C336  1  0.25830000  0.12907000  0.15075000  1
  C  C337  1  0.25830000  0.12907000  0.84925000  1
  C  C338  1  0.26018000  0.71670000  0.12500000  1
  C  C339  1  0.26018000  0.71670000  0.87500000  1
  C  C340  1  0.26600000  0.58637000  0.30735000  1
  C  C341  1  0.26600000  0.58637000  0.69265000  1
  C  C342  1  0.26675000  0.21878000  0.14286000  1
  C  C343  1  0.26675000  0.21878000  0.85714000  1
  C  C344  1  0.27282000  0.17157000  0.13008000  1
  C  C345  1  0.27282000  0.17157000  0.86992000  1
  C  C346  1  0.27987000  0.52635000  0.25864000  1
  C  C347  1  0.27987000  0.52635000  0.74136000  1
  C  C348  1  0.28031000  0.31039000  0.14096000  1
  C  C349  1  0.28031000  0.31039000  0.85904000  1
  C  C350  1  0.28122000  0.23325000  0.35714000  1
  C  C351  1  0.28122000  0.23325000  0.64286000  1
  C  C352  1  0.28330000  0.26018000  0.12500000  1
  C  C353  1  0.28330000  0.26018000  0.87500000  1
  C  C354  1  0.28463000  0.57353000  0.27354000  1
  C  C355  1  0.28463000  0.57353000  0.72646000  1
  C  C356  1  0.28683000  0.93054000  0.35636000  1
  C  C357  1  0.28683000  0.93054000  0.64364000  1
  C  C358  1  0.29291000  0.46831000  0.20904000  1
  C  C359  1  0.29291000  0.46831000  0.79096000  1
  C  C360  1  0.29361000  0.18819000  0.42013000  1
  C  C361  1  0.29361000  0.18819000  0.57987000  1
  C  C362  1  0.29476000  0.16513000  0.09807000  1
  C  C363  1  0.29476000  0.16513000  0.90193000  1
  C  C364  1  0.29951000  0.51748000  0.22686000  1
  C  C365  1  0.29951000  0.51748000  0.77314000  1
  C  C366  1  0.30206000  0.15942000  0.45238000  1
  C  C367  1  0.30206000  0.15942000  0.54762000  1
  C  C368  1  0.30659000  0.25359000  0.09344000  1
  C  C369  1  0.30659000  0.25359000  0.90656000  1
  C  C370  1  0.30768000  0.61043000  0.25565000  1
  C  C371  1  0.30768000  0.61043000  0.74435000  1
  C  C372  1  0.31039000  0.71969000  0.14096000  1
  C  C373  1  0.31039000  0.71969000  0.85904000  1
  C  C374  1  0.31073000  0.81073000  0.25000000  1
  C  C375  1  0.31073000  0.81073000  0.75000000  1
  C  C376  1  0.31181000  0.20639000  0.07987000  1
  C  C377  1  0.31181000  0.20639000  0.92013000  1
  C  C378  1  0.31556000  0.98334000  0.40464000  1
  C  C379  1  0.31556000  0.98334000  0.59536000  1
  C  C380  1  0.32442000  0.55541000  0.20942000  1
  C  C381  1  0.32442000  0.55541000  0.79058000  1
  C  C382  1  0.32673000  0.95870000  0.37456000  1
  C  C383  1  0.32673000  0.95870000  0.62544000  1
  C  C384  1  0.32800000  0.60209000  0.22377000  1
  C  C385  1  0.32800000  0.60209000  0.77623000  1
  C  C386  1  0.32843000  0.22718000  0.36992000  1
  C  C387  1  0.32843000  0.22718000  0.63008000  1
  C  C388  1  0.33487000  0.20524000  0.40193000  1
  C  C389  1  0.33487000  0.20524000  0.59807000  1
  C  C390  1  0.33945000  0.04032000  0.45278000  1
  C  C391  1  0.33945000  0.04032000  0.54722000  1
  C  C392  1  0.34058000  0.19794000  0.04762000  1
  C  C393  1  0.34058000  0.19794000  0.95238000  1
  C  C394  1  0.35167000  0.01109000  0.42174000  1
  C  C395  1  0.35167000  0.01109000  0.57826000  1
  C  C396  1  0.35286000  0.64310000  0.20462000  1
  C  C397  1  0.35286000  0.64310000  0.79538000  1
  C  C398  1  0.35690000  0.35286000  0.20462000  1
  C  C399  1  0.35690000  0.35286000  0.79538000  1
  C  C400  1  0.37093000  0.24170000  0.34925000  1
  C  C401  1  0.37093000  0.24170000  0.65075000  1
  C  C402  1  0.37447000  0.96193000  0.36088000  1
  C  C403  1  0.37447000  0.96193000  0.63912000  1
  C  C404  1  0.38957000  0.30768000  0.25565000  1
  C  C405  1  0.38957000  0.30768000  0.74435000  1
  C  C406  1  0.39791000  0.32800000  0.22377000  1
  C  C407  1  0.39791000  0.32800000  0.77623000  1
  C  C408  1  0.39920000  0.01290000  0.40812000  1
  C  C409  1  0.39920000  0.01290000  0.59188000  1
  C  C410  1  0.41000000  0.98948000  0.37789000  1
  C  C411  1  0.41000000  0.98948000  0.62211000  1
  C  C412  1  0.41363000  0.26600000  0.30735000  1
  C  C413  1  0.41363000  0.26600000  0.69265000  1
  C  C414  1  0.42647000  0.28463000  0.27354000  1
  C  C415  1  0.42647000  0.28463000  0.72646000  1
  C  C416  1  0.43054000  0.78683000  0.14364000  1
  C  C417  1  0.43054000  0.78683000  0.85636000  1
  C  C418  1  0.44459000  0.32442000  0.20942000  1
  C  C419  1  0.44459000  0.32442000  0.79058000  1
  C  C420  1  0.45870000  0.82673000  0.12544000  1
  C  C421  1  0.45870000  0.82673000  0.87456000  1
  C  C422  1  0.45968000  0.16055000  0.04722000  1
  C  C423  1  0.45968000  0.16055000  0.95278000  1
  C  C424  1  0.46130000  0.99419000  0.36492000  1
  C  C425  1  0.46130000  0.99419000  0.63508000  1
  C  C426  1  0.46193000  0.87447000  0.13912000  1
  C  C427  1  0.46193000  0.87447000  0.86088000  1
  C  C428  1  0.46831000  0.70709000  0.20904000  1
  C  C429  1  0.46831000  0.70709000  0.79096000  1
  C  C430  1  0.47365000  0.27987000  0.25864000  1
  C  C431  1  0.47365000  0.27987000  0.74136000  1
  C  C432  1  0.48252000  0.29951000  0.22686000  1
  C  C433  1  0.48252000  0.29951000  0.77314000  1
  C  C434  1  0.48334000  0.81556000  0.09536000  1
  C  C435  1  0.48334000  0.81556000  0.90464000  1
  C  C436  1  0.48710000  0.10080000  0.09188000  1
  C  C437  1  0.48710000  0.10080000  0.90812000  1
  C  C438  1  0.48891000  0.14833000  0.07826000  1
  C  C439  1  0.48891000  0.14833000  0.92174000  1
  C  C440  1  0.48948000  0.91000000  0.12211000  1
  C  C441  1  0.48948000  0.91000000  0.87789000  1
  C  C442  1  0.49419000  0.96130000  0.13508000  1
  C  C443  1  0.49419000  0.96130000  0.86492000  1
  C  C444  1  0.50581000  0.03870000  0.13508000  1
  C  C445  1  0.50581000  0.03870000  0.86492000  1
  C  C446  1  0.51052000  0.09000000  0.12211000  1
  C  C447  1  0.51052000  0.09000000  0.87789000  1
  C  C448  1  0.51109000  0.85167000  0.07826000  1
  C  C449  1  0.51109000  0.85167000  0.92174000  1
  C  C450  1  0.51290000  0.89920000  0.09188000  1
  C  C451  1  0.51290000  0.89920000  0.90812000  1
  C  C452  1  0.51666000  0.18444000  0.09536000  1
  C  C453  1  0.51666000  0.18444000  0.90464000  1
  C  C454  1  0.51748000  0.70049000  0.22686000  1
  C  C455  1  0.51748000  0.70049000  0.77314000  1
  C  C456  1  0.52635000  0.72013000  0.25864000  1
  C  C457  1  0.52635000  0.72013000  0.74136000  1
  C  C458  1  0.53169000  0.29291000  0.20904000  1
  C  C459  1  0.53169000  0.29291000  0.79096000  1
  C  C460  1  0.53807000  0.12553000  0.13912000  1
  C  C461  1  0.53807000  0.12553000  0.86088000  1
  C  C462  1  0.53870000  0.00581000  0.36492000  1
  C  C463  1  0.53870000  0.00581000  0.63508000  1
  C  C464  1  0.54032000  0.83945000  0.04722000  1
  C  C465  1  0.54032000  0.83945000  0.95278000  1
  C  C466  1  0.54130000  0.17327000  0.12544000  1
  C  C467  1  0.54130000  0.17327000  0.87456000  1
  C  C468  1  0.55541000  0.67558000  0.20942000  1
  C  C469  1  0.55541000  0.67558000  0.79058000  1
  C  C470  1  0.56946000  0.21317000  0.14364000  1
  C  C471  1  0.56946000  0.21317000  0.85636000  1
  C  C472  1  0.57353000  0.71537000  0.27354000  1
  C  C473  1  0.57353000  0.71537000  0.72646000  1
  C  C474  1  0.58637000  0.73400000  0.30735000  1
  C  C475  1  0.58637000  0.73400000  0.69265000  1
  C  C476  1  0.59000000  0.01052000  0.37789000  1
  C  C477  1  0.59000000  0.01052000  0.62211000  1
  C  C478  1  0.60080000  0.98710000  0.40812000  1
  C  C479  1  0.60080000  0.98710000  0.59188000  1
  C  C480  1  0.60209000  0.67200000  0.22377000  1
  C  C481  1  0.60209000  0.67200000  0.77623000  1
  C  C482  1  0.61043000  0.69232000  0.25565000  1
  C  C483  1  0.61043000  0.69232000  0.74435000  1
  C  C484  1  0.62553000  0.03807000  0.36088000  1
  C  C485  1  0.62553000  0.03807000  0.63912000  1
  C  C486  1  0.62907000  0.75830000  0.34925000  1
  C  C487  1  0.62907000  0.75830000  0.65075000  1
  C  C488  1  0.64310000  0.64714000  0.20462000  1
  C  C489  1  0.64310000  0.64714000  0.79538000  1
  C  C490  1  0.64714000  0.35690000  0.20462000  1
  C  C491  1  0.64714000  0.35690000  0.79538000  1
  C  C492  1  0.64833000  0.98891000  0.42174000  1
  C  C493  1  0.64833000  0.98891000  0.57826000  1
  C  C494  1  0.65942000  0.80206000  0.04762000  1
  C  C495  1  0.65942000  0.80206000  0.95238000  1
  C  C496  1  0.66055000  0.95968000  0.45278000  1
  C  C497  1  0.66055000  0.95968000  0.54722000  1
  C  C498  1  0.66513000  0.79476000  0.40193000  1
  C  C499  1  0.66513000  0.79476000  0.59807000  1
  C  C500  1  0.67157000  0.77282000  0.36992000  1
  C  C501  1  0.67157000  0.77282000  0.63008000  1
  C  C502  1  0.67200000  0.39791000  0.22377000  1
  C  C503  1  0.67200000  0.39791000  0.77623000  1
  C  C504  1  0.67327000  0.04130000  0.37456000  1
  C  C505  1  0.67327000  0.04130000  0.62544000  1
  C  C506  1  0.67558000  0.44459000  0.20942000  1
  C  C507  1  0.67558000  0.44459000  0.79058000  1
  C  C508  1  0.68444000  0.01666000  0.40464000  1
  C  C509  1  0.68444000  0.01666000  0.59536000  1
  C  C510  1  0.68819000  0.79361000  0.07987000  1
  C  C511  1  0.68819000  0.79361000  0.92013000  1
  C  C512  1  0.68927000  0.18927000  0.25000000  1
  C  C513  1  0.68927000  0.18927000  0.75000000  1
  C  C514  1  0.68961000  0.28031000  0.14096000  1
  C  C515  1  0.68961000  0.28031000  0.85904000  1
  C  C516  1  0.69232000  0.38957000  0.25565000  1
  C  C517  1  0.69232000  0.38957000  0.74435000  1
  C  C518  1  0.69341000  0.74641000  0.09344000  1
  C  C519  1  0.69341000  0.74641000  0.90656000  1
  C  C520  1  0.69794000  0.84058000  0.45238000  1
  C  C521  1  0.69794000  0.84058000  0.54762000  1
  C  C522  1  0.70049000  0.48252000  0.22686000  1
  C  C523  1  0.70049000  0.48252000  0.77314000  1
  C  C524  1  0.70524000  0.83487000  0.09807000  1
  C  C525  1  0.70524000  0.83487000  0.90193000  1
  C  C526  1  0.70639000  0.81181000  0.42013000  1
  C  C527  1  0.70639000  0.81181000  0.57987000  1
  C  C528  1  0.70709000  0.53169000  0.20904000  1
  C  C529  1  0.70709000  0.53169000  0.79096000  1
  C  C530  1  0.71317000  0.06946000  0.35636000  1
  C  C531  1  0.71317000  0.06946000  0.64364000  1
  C  C532  1  0.71537000  0.42647000  0.27354000  1
  C  C533  1  0.71537000  0.42647000  0.72646000  1
  C  C534  1  0.71670000  0.73982000  0.12500000  1
  C  C535  1  0.71670000  0.73982000  0.87500000  1
  C  C536  1  0.71878000  0.76675000  0.35714000  1
  C  C537  1  0.71878000  0.76675000  0.64286000  1
  C  C538  1  0.71969000  0.68961000  0.14096000  1
  C  C539  1  0.71969000  0.68961000  0.85904000  1
  C  C540  1  0.72013000  0.47365000  0.25864000  1
  C  C541  1  0.72013000  0.47365000  0.74136000  1
  C  C542  1  0.72718000  0.82843000  0.13008000  1
  C  C543  1  0.72718000  0.82843000  0.86992000  1
  C  C544  1  0.73325000  0.78122000  0.14286000  1
  C  C545  1  0.73325000  0.78122000  0.85714000  1
  C  C546  1  0.73400000  0.41363000  0.30735000  1
  C  C547  1  0.73400000  0.41363000  0.69265000  1
  C  C548  1  0.73982000  0.28330000  0.12500000  1
  C  C549  1  0.73982000  0.28330000  0.87500000  1
  C  C550  1  0.74170000  0.87093000  0.15075000  1
  C  C551  1  0.74170000  0.87093000  0.84925000  1
  C  C552  1  0.74641000  0.30659000  0.09344000  1
  C  C553  1  0.74641000  0.30659000  0.90656000  1
  C  C554  1  0.75359000  0.80659000  0.40656000  1
  C  C555  1  0.75359000  0.80659000  0.59344000  1
  C  C556  1  0.75830000  0.37093000  0.34925000  1
  C  C557  1  0.75830000  0.37093000  0.65075000  1
  C  C558  1  0.76018000  0.78330000  0.37500000  1
  C  C559  1  0.76018000  0.78330000  0.62500000  1
  C  C560  1  0.76600000  0.91363000  0.19265000  1
  C  C561  1  0.76600000  0.91363000  0.80735000  1
  C  C562  1  0.76675000  0.28122000  0.35714000  1
  C  C563  1  0.76675000  0.28122000  0.64286000  1
  C  C564  1  0.77282000  0.32843000  0.36992000  1
  C  C565  1  0.77282000  0.32843000  0.63008000  1
  C  C566  1  0.77987000  0.97365000  0.24136000  1
  C  C567  1  0.77987000  0.97365000  0.75864000  1
  C  C568  1  0.78031000  0.18961000  0.35904000  1
  C  C569  1  0.78031000  0.18961000  0.64096000  1
  C  C570  1  0.78122000  0.26675000  0.14286000  1
  C  C571  1  0.78122000  0.26675000  0.85714000  1
  C  C572  1  0.78330000  0.23982000  0.37500000  1
  C  C573  1  0.78330000  0.23982000  0.62500000  1
  C  C574  1  0.78463000  0.92647000  0.22646000  1
  C  C575  1  0.78463000  0.92647000  0.77354000  1
  C  C576  1  0.78683000  0.56946000  0.14364000  1
  C  C577  1  0.78683000  0.56946000  0.85636000  1
  C  C578  1  0.79291000  0.03169000  0.29096000  1
  C  C579  1  0.79291000  0.03169000  0.70904000  1
  C  C580  1  0.79361000  0.31181000  0.07987000  1
  C  C581  1  0.79361000  0.31181000  0.92013000  1
  C  C582  1  0.79476000  0.33487000  0.40193000  1
  C  C583  1  0.79476000  0.33487000  0.59807000  1
  C  C584  1  0.79951000  0.98252000  0.27314000  1
  C  C585  1  0.79951000  0.98252000  0.72686000  1
  C  C586  1  0.80206000  0.34058000  0.04762000  1
  C  C587  1  0.80206000  0.34058000  0.95238000  1
  C  C588  1  0.80659000  0.24641000  0.40656000  1
  C  C589  1  0.80659000  0.24641000  0.59344000  1
  C  C590  1  0.80768000  0.88957000  0.24435000  1
  C  C591  1  0.80768000  0.88957000  0.75565000  1
  C  C592  1  0.81039000  0.78031000  0.35904000  1
  C  C593  1  0.81039000  0.78031000  0.64096000  1
  C  C594  1  0.81073000  0.68927000  0.25000000  1
  C  C595  1  0.81073000  0.68927000  0.75000000  1
  C  C596  1  0.81181000  0.29361000  0.42013000  1
  C  C597  1  0.81181000  0.29361000  0.57987000  1
  C  C598  1  0.81556000  0.51666000  0.09536000  1
  C  C599  1  0.81556000  0.51666000  0.90464000  1
  C  C600  1  0.82442000  0.94459000  0.29058000  1
  C  C601  1  0.82442000  0.94459000  0.70942000  1
  C  C602  1  0.82673000  0.54130000  0.12544000  1
  C  C603  1  0.82673000  0.54130000  0.87456000  1
  C  C604  1  0.82800000  0.89791000  0.27623000  1
  C  C605  1  0.82800000  0.89791000  0.72377000  1
  C  C606  1  0.82843000  0.27282000  0.13008000  1
  C  C607  1  0.82843000  0.27282000  0.86992000  1
  C  C608  1  0.83487000  0.29476000  0.09807000  1
  C  C609  1  0.83487000  0.29476000  0.90193000  1
  C  C610  1  0.83945000  0.45968000  0.04722000  1
  C  C611  1  0.83945000  0.45968000  0.95278000  1
  C  C612  1  0.84058000  0.30206000  0.45238000  1
  C  C613  1  0.84058000  0.30206000  0.54762000  1
  C  C614  1  0.85167000  0.48891000  0.07826000  1
  C  C615  1  0.85167000  0.48891000  0.92174000  1
  C  C616  1  0.85286000  0.85690000  0.29538000  1
  C  C617  1  0.85286000  0.85690000  0.70462000  1
  C  C618  1  0.85690000  0.14714000  0.29538000  1
  C  C619  1  0.85690000  0.14714000  0.70462000  1
  C  C620  1  0.87093000  0.25830000  0.15075000  1
  C  C621  1  0.87093000  0.25830000  0.84925000  1
  C  C622  1  0.87447000  0.53807000  0.13912000  1
  C  C623  1  0.87447000  0.53807000  0.86088000  1
  C  C624  1  0.88957000  0.19232000  0.24435000  1
  C  C625  1  0.88957000  0.19232000  0.75565000  1
  C  C626  1  0.89791000  0.17200000  0.27623000  1
  C  C627  1  0.89791000  0.17200000  0.72377000  1
  C  C628  1  0.89920000  0.48710000  0.09188000  1
  C  C629  1  0.89920000  0.48710000  0.90812000  1
  C  C630  1  0.91000000  0.51052000  0.12211000  1
  C  C631  1  0.91000000  0.51052000  0.87789000  1
  C  C632  1  0.91363000  0.23400000  0.19265000  1
  C  C633  1  0.91363000  0.23400000  0.80735000  1
  C  C634  1  0.92647000  0.21537000  0.22646000  1
  C  C635  1  0.92647000  0.21537000  0.77354000  1
  C  C636  1  0.93054000  0.71317000  0.35636000  1
  C  C637  1  0.93054000  0.71317000  0.64364000  1
  C  C638  1  0.94459000  0.17558000  0.29058000  1
  C  C639  1  0.94459000  0.17558000  0.70942000  1
  C  C640  1  0.95870000  0.67327000  0.37456000  1
  C  C641  1  0.95870000  0.67327000  0.62544000  1
  C  C642  1  0.95968000  0.33945000  0.45278000  1
  C  C643  1  0.95968000  0.33945000  0.54722000  1
  C  C644  1  0.96130000  0.50581000  0.13508000  1
  C  C645  1  0.96130000  0.50581000  0.86492000  1
  C  C646  1  0.96193000  0.62553000  0.36088000  1
  C  C647  1  0.96193000  0.62553000  0.63912000  1
  C  C648  1  0.96831000  0.79291000  0.29096000  1
  C  C649  1  0.96831000  0.79291000  0.70904000  1
  C  C650  1  0.97365000  0.22013000  0.24136000  1
  C  C651  1  0.97365000  0.22013000  0.75864000  1
  C  C652  1  0.98252000  0.20049000  0.27314000  1
  C  C653  1  0.98252000  0.20049000  0.72686000  1
  C  C654  1  0.98334000  0.68444000  0.40464000  1
  C  C655  1  0.98334000  0.68444000  0.59536000  1
  C  C656  1  0.98710000  0.39920000  0.40812000  1
  C  C657  1  0.98710000  0.39920000  0.59188000  1
  C  C658  1  0.98891000  0.35167000  0.42174000  1
  C  C659  1  0.98891000  0.35167000  0.57826000  1
  C  C660  1  0.98948000  0.59000000  0.37789000  1
  C  C661  1  0.98948000  0.59000000  0.62211000  1
  C  C662  1  0.99419000  0.53870000  0.36492000  1
  C  C663  1  0.99419000  0.53870000  0.63508000  1
  N  N664  1  0.00000000  0.50000000  0.11459000  1
  N  N665  1  0.00000000  0.50000000  0.38541000  1
  N  N666  1  0.00000000  0.50000000  0.61459000  1
  N  N667  1  0.00000000  0.50000000  0.88541000  1
  N  N668  1  0.00410000  0.47471000  0.33285000  1
  N  N669  1  0.00410000  0.47471000  0.66715000  1
  N  N670  1  0.02529000  0.49590000  0.16715000  1
  N  N671  1  0.02529000  0.49590000  0.83285000  1
  N  N672  1  0.05491000  0.75240000  0.16841000  1
  N  N673  1  0.05491000  0.75240000  0.83159000  1
  N  N674  1  0.08202000  0.73630000  0.14134000  1
  N  N675  1  0.08202000  0.73630000  0.85866000  1
  N  N676  1  0.13246000  0.75978000  0.18195000  1
  N  N677  1  0.13246000  0.75978000  0.81805000  1
  N  N678  1  0.23630000  0.58202000  0.35866000  1
  N  N679  1  0.23630000  0.58202000  0.64134000  1
  N  N680  1  0.24022000  0.13246000  0.18195000  1
  N  N681  1  0.24022000  0.13246000  0.81805000  1
  N  N682  1  0.24760000  0.05491000  0.16841000  1
  N  N683  1  0.24760000  0.05491000  0.83159000  1
  N  N684  1  0.25240000  0.55491000  0.33159000  1
  N  N685  1  0.25240000  0.55491000  0.66841000  1
  N  N686  1  0.25978000  0.63246000  0.31805000  1
  N  N687  1  0.25978000  0.63246000  0.68195000  1
  N  N688  1  0.26370000  0.08202000  0.14134000  1
  N  N689  1  0.26370000  0.08202000  0.85866000  1
  N  N690  1  0.36754000  0.25978000  0.31805000  1
  N  N691  1  0.36754000  0.25978000  0.68195000  1
  N  N692  1  0.41798000  0.23630000  0.35866000  1
  N  N693  1  0.41798000  0.23630000  0.64134000  1
  N  N694  1  0.44509000  0.25240000  0.33159000  1
  N  N695  1  0.44509000  0.25240000  0.66841000  1
  N  N696  1  0.47471000  0.99590000  0.33285000  1
  N  N697  1  0.47471000  0.99590000  0.66715000  1
  N  N698  1  0.49590000  0.97471000  0.16715000  1
  N  N699  1  0.49590000  0.97471000  0.83285000  1
  N  N700  1  0.50000000  0.00000000  0.11459000  1
  N  N701  1  0.50000000  0.00000000  0.38541000  1
  N  N702  1  0.50000000  0.00000000  0.61459000  1
  N  N703  1  0.50000000  0.00000000  0.88541000  1
  N  N704  1  0.50410000  0.02529000  0.16715000  1
  N  N705  1  0.50410000  0.02529000  0.83285000  1
  N  N706  1  0.52529000  0.00410000  0.33285000  1
  N  N707  1  0.52529000  0.00410000  0.66715000  1
  N  N708  1  0.55491000  0.74760000  0.33159000  1
  N  N709  1  0.55491000  0.74760000  0.66841000  1
  N  N710  1  0.58202000  0.76370000  0.35866000  1
  N  N711  1  0.58202000  0.76370000  0.64134000  1
  N  N712  1  0.63246000  0.74022000  0.31805000  1
  N  N713  1  0.63246000  0.74022000  0.68195000  1
  N  N714  1  0.73630000  0.91798000  0.14134000  1
  N  N715  1  0.73630000  0.91798000  0.85866000  1
  N  N716  1  0.74022000  0.36754000  0.31805000  1
  N  N717  1  0.74022000  0.36754000  0.68195000  1
  N  N718  1  0.74760000  0.44509000  0.33159000  1
  N  N719  1  0.74760000  0.44509000  0.66841000  1
  N  N720  1  0.75240000  0.94509000  0.16841000  1
  N  N721  1  0.75240000  0.94509000  0.83159000  1
  N  N722  1  0.75978000  0.86754000  0.18195000  1
  N  N723  1  0.75978000  0.86754000  0.81805000  1
  N  N724  1  0.76370000  0.41798000  0.35866000  1
  N  N725  1  0.76370000  0.41798000  0.64134000  1
  N  N726  1  0.86754000  0.24022000  0.18195000  1
  N  N727  1  0.86754000  0.24022000  0.81805000  1
  N  N728  1  0.91798000  0.26370000  0.14134000  1
  N  N729  1  0.91798000  0.26370000  0.85866000  1
  N  N730  1  0.94509000  0.24760000  0.16841000  1
  N  N731  1  0.94509000  0.24760000  0.83159000  1
  N  N732  1  0.97471000  0.50410000  0.16715000  1
  N  N733  1  0.97471000  0.50410000  0.83285000  1
  N  N734  1  0.99590000  0.52529000  0.33285000  1
  N  N735  1  0.99590000  0.52529000  0.66715000  1
  O  O736  1  0.03740000  0.18193000  0.31755000  1
  O  O737  1  0.03740000  0.18193000  0.68245000  1
  O  O738  1  0.03946000  0.70374000  0.46388000  1
  O  O739  1  0.03946000  0.70374000  0.53612000  1
  O  O740  1  0.06240000  0.23647000  0.27835000  1
  O  O741  1  0.06240000  0.23647000  0.72165000  1
  O  O742  1  0.06528000  0.62479000  0.46488000  1
  O  O743  1  0.06528000  0.62479000  0.53512000  1
  O  O744  1  0.06595000  0.24426000  0.36913000  1
  O  O745  1  0.06595000  0.24426000  0.63087000  1
  O  O746  1  0.09383000  0.29808000  0.33050000  1
  O  O747  1  0.09383000  0.29808000  0.66950000  1
  O  O748  1  0.12479000  0.56528000  0.03512000  1
  O  O749  1  0.12479000  0.56528000  0.96488000  1
  O  O750  1  0.12634000  0.13275000  0.32270000  1
  O  O751  1  0.12634000  0.13275000  0.67730000  1
  O  O752  1  0.13275000  0.87366000  0.32270000  1
  O  O753  1  0.13275000  0.87366000  0.67730000  1
  O  O754  1  0.13588000  0.73370000  0.46404000  1
  O  O755  1  0.13588000  0.73370000  0.53596000  1
  O  O756  1  0.15024000  0.18552000  0.28192000  1
  O  O757  1  0.15024000  0.18552000  0.71808000  1
  O  O758  1  0.15405000  0.30083000  0.26708000  1
  O  O759  1  0.15405000  0.30083000  0.73292000  1
  O  O760  1  0.15500000  0.66068000  0.03562000  1
  O  O761  1  0.15500000  0.66068000  0.96438000  1
  O  O762  1  0.15582000  0.19472000  0.37301000  1
  O  O763  1  0.15582000  0.19472000  0.62699000  1
  O  O764  1  0.16068000  0.65500000  0.46438000  1
  O  O765  1  0.16068000  0.65500000  0.53562000  1
  O  O766  1  0.18193000  0.96260000  0.31755000  1
  O  O767  1  0.18193000  0.96260000  0.68245000  1
  O  O768  1  0.18484000  0.24592000  0.33295000  1
  O  O769  1  0.18484000  0.24592000  0.66705000  1
  O  O770  1  0.18552000  0.84976000  0.28192000  1
  O  O771  1  0.18552000  0.84976000  0.71808000  1
  O  O772  1  0.19472000  0.84418000  0.37301000  1
  O  O773  1  0.19472000  0.84418000  0.62699000  1
  O  O774  1  0.19917000  0.34595000  0.23292000  1
  O  O775  1  0.19917000  0.34595000  0.76708000  1
  O  O776  1  0.20192000  0.40617000  0.16950000  1
  O  O777  1  0.20192000  0.40617000  0.83050000  1
  O  O778  1  0.20374000  0.53946000  0.03612000  1
  O  O779  1  0.20374000  0.53946000  0.96388000  1
  O  O780  1  0.23370000  0.63588000  0.03596000  1
  O  O781  1  0.23370000  0.63588000  0.96404000  1
  O  O782  1  0.23647000  0.93760000  0.27835000  1
  O  O783  1  0.23647000  0.93760000  0.72165000  1
  O  O784  1  0.24426000  0.93405000  0.36913000  1
  O  O785  1  0.24426000  0.93405000  0.63087000  1
  O  O786  1  0.24592000  0.81516000  0.33295000  1
  O  O787  1  0.24592000  0.81516000  0.66705000  1
  O  O788  1  0.25408000  0.31516000  0.16705000  1
  O  O789  1  0.25408000  0.31516000  0.83295000  1
  O  O790  1  0.25574000  0.43405000  0.13087000  1
  O  O791  1  0.25574000  0.43405000  0.86913000  1
  O  O792  1  0.26353000  0.43760000  0.22165000  1
  O  O793  1  0.26353000  0.43760000  0.77835000  1
  O  O794  1  0.26630000  0.13588000  0.46404000  1
  O  O795  1  0.26630000  0.13588000  0.53596000  1
  O  O796  1  0.29626000  0.03946000  0.46388000  1
  O  O797  1  0.29626000  0.03946000  0.53612000  1
  O  O798  1  0.29808000  0.90617000  0.33050000  1
  O  O799  1  0.29808000  0.90617000  0.66950000  1
  O  O800  1  0.30083000  0.84595000  0.26708000  1
  O  O801  1  0.30083000  0.84595000  0.73292000  1
  O  O802  1  0.30528000  0.34418000  0.12699000  1
  O  O803  1  0.30528000  0.34418000  0.87301000  1
  O  O804  1  0.31448000  0.34976000  0.21808000  1
  O  O805  1  0.31448000  0.34976000  0.78192000  1
  O  O806  1  0.31516000  0.74592000  0.16705000  1
  O  O807  1  0.31516000  0.74592000  0.83295000  1
  O  O808  1  0.31807000  0.46260000  0.18245000  1
  O  O809  1  0.31807000  0.46260000  0.81755000  1
  O  O810  1  0.33932000  0.15500000  0.03562000  1
  O  O811  1  0.33932000  0.15500000  0.96438000  1
  O  O812  1  0.34418000  0.69472000  0.12699000  1
  O  O813  1  0.34418000  0.69472000  0.87301000  1
  O  O814  1  0.34500000  0.16068000  0.46438000  1
  O  O815  1  0.34500000  0.16068000  0.53562000  1
  O  O816  1  0.34595000  0.80083000  0.23292000  1
  O  O817  1  0.34595000  0.80083000  0.76708000  1
  O  O818  1  0.34976000  0.68552000  0.21808000  1
  O  O819  1  0.34976000  0.68552000  0.78192000  1
  O  O820  1  0.36412000  0.23370000  0.03596000  1
  O  O821  1  0.36412000  0.23370000  0.96404000  1
  O  O822  1  0.36725000  0.37366000  0.17730000  1
  O  O823  1  0.36725000  0.37366000  0.82270000  1
  O  O824  1  0.37366000  0.63275000  0.17730000  1
  O  O825  1  0.37366000  0.63275000  0.82270000  1
  O  O826  1  0.37521000  0.06528000  0.46488000  1
  O  O827  1  0.37521000  0.06528000  0.53512000  1
  O  O828  1  0.40617000  0.79808000  0.16950000  1
  O  O829  1  0.40617000  0.79808000  0.83050000  1
  O  O830  1  0.43405000  0.74426000  0.13087000  1
  O  O831  1  0.43405000  0.74426000  0.86913000  1
  O  O832  1  0.43472000  0.12479000  0.03512000  1
  O  O833  1  0.43472000  0.12479000  0.96488000  1
  O  O834  1  0.43760000  0.73647000  0.22165000  1
  O  O835  1  0.43760000  0.73647000  0.77835000  1
  O  O836  1  0.46054000  0.20374000  0.03612000  1
  O  O837  1  0.46054000  0.20374000  0.96388000  1
  O  O838  1  0.46260000  0.68193000  0.18245000  1
  O  O839  1  0.46260000  0.68193000  0.81755000  1
  O  O840  1  0.53740000  0.31807000  0.18245000  1
  O  O841  1  0.53740000  0.31807000  0.81755000  1
  O  O842  1  0.53946000  0.79626000  0.03612000  1
  O  O843  1  0.53946000  0.79626000  0.96388000  1
  O  O844  1  0.56240000  0.26353000  0.22165000  1
  O  O845  1  0.56240000  0.26353000  0.77835000  1
  O  O846  1  0.56528000  0.87521000  0.03512000  1
  O  O847  1  0.56528000  0.87521000  0.96488000  1
  O  O848  1  0.56595000  0.25574000  0.13087000  1
  O  O849  1  0.56595000  0.25574000  0.86913000  1
  O  O850  1  0.59383000  0.20192000  0.16950000  1
  O  O851  1  0.59383000  0.20192000  0.83050000  1
  O  O852  1  0.62479000  0.93472000  0.46488000  1
  O  O853  1  0.62479000  0.93472000  0.53512000  1
  O  O854  1  0.62634000  0.36725000  0.17730000  1
  O  O855  1  0.62634000  0.36725000  0.82270000  1
  O  O856  1  0.63275000  0.62634000  0.17730000  1
  O  O857  1  0.63275000  0.62634000  0.82270000  1
  O  O858  1  0.63588000  0.76630000  0.03596000  1
  O  O859  1  0.63588000  0.76630000  0.96404000  1
  O  O860  1  0.65024000  0.31448000  0.21808000  1
  O  O861  1  0.65024000  0.31448000  0.78192000  1
  O  O862  1  0.65405000  0.19917000  0.23292000  1
  O  O863  1  0.65405000  0.19917000  0.76708000  1
  O  O864  1  0.65500000  0.83932000  0.46438000  1
  O  O865  1  0.65500000  0.83932000  0.53562000  1
  O  O866  1  0.65582000  0.30528000  0.12699000  1
  O  O867  1  0.65582000  0.30528000  0.87301000  1
  O  O868  1  0.66068000  0.84500000  0.03562000  1
  O  O869  1  0.66068000  0.84500000  0.96438000  1
  O  O870  1  0.68193000  0.53740000  0.18245000  1
  O  O871  1  0.68193000  0.53740000  0.81755000  1
  O  O872  1  0.68484000  0.25408000  0.16705000  1
  O  O873  1  0.68484000  0.25408000  0.83295000  1
  O  O874  1  0.68552000  0.65024000  0.21808000  1
  O  O875  1  0.68552000  0.65024000  0.78192000  1
  O  O876  1  0.69472000  0.65582000  0.12699000  1
  O  O877  1  0.69472000  0.65582000  0.87301000  1
  O  O878  1  0.69917000  0.15405000  0.26708000  1
  O  O879  1  0.69917000  0.15405000  0.73292000  1
  O  O880  1  0.70192000  0.09383000  0.33050000  1
  O  O881  1  0.70192000  0.09383000  0.66950000  1
  O  O882  1  0.70374000  0.96054000  0.46388000  1
  O  O883  1  0.70374000  0.96054000  0.53612000  1
  O  O884  1  0.73370000  0.86412000  0.46404000  1
  O  O885  1  0.73370000  0.86412000  0.53596000  1
  O  O886  1  0.73647000  0.56240000  0.22165000  1
  O  O887  1  0.73647000  0.56240000  0.77835000  1
  O  O888  1  0.74426000  0.56595000  0.13087000  1
  O  O889  1  0.74426000  0.56595000  0.86913000  1
  O  O890  1  0.74592000  0.68484000  0.16705000  1
  O  O891  1  0.74592000  0.68484000  0.83295000  1
  O  O892  1  0.75408000  0.18484000  0.33295000  1
  O  O893  1  0.75408000  0.18484000  0.66705000  1
  O  O894  1  0.75574000  0.06595000  0.36913000  1
  O  O895  1  0.75574000  0.06595000  0.63087000  1
  O  O896  1  0.76353000  0.06240000  0.27835000  1
  O  O897  1  0.76353000  0.06240000  0.72165000  1
  O  O898  1  0.76630000  0.36412000  0.03596000  1
  O  O899  1  0.76630000  0.36412000  0.96404000  1
  O  O900  1  0.79626000  0.46054000  0.03612000  1
  O  O901  1  0.79626000  0.46054000  0.96388000  1
  O  O902  1  0.79808000  0.59383000  0.16950000  1
  O  O903  1  0.79808000  0.59383000  0.83050000  1
  O  O904  1  0.80083000  0.65405000  0.23292000  1
  O  O905  1  0.80083000  0.65405000  0.76708000  1
  O  O906  1  0.80528000  0.15582000  0.37301000  1
  O  O907  1  0.80528000  0.15582000  0.62699000  1
  O  O908  1  0.81448000  0.15024000  0.28192000  1
  O  O909  1  0.81448000  0.15024000  0.71808000  1
  O  O910  1  0.81516000  0.75408000  0.33295000  1
  O  O911  1  0.81516000  0.75408000  0.66705000  1
  O  O912  1  0.81807000  0.03740000  0.31755000  1
  O  O913  1  0.81807000  0.03740000  0.68245000  1
  O  O914  1  0.83932000  0.34500000  0.46438000  1
  O  O915  1  0.83932000  0.34500000  0.53562000  1
  O  O916  1  0.84418000  0.80528000  0.37301000  1
  O  O917  1  0.84418000  0.80528000  0.62699000  1
  O  O918  1  0.84500000  0.33932000  0.03562000  1
  O  O919  1  0.84500000  0.33932000  0.96438000  1
  O  O920  1  0.84595000  0.69917000  0.26708000  1
  O  O921  1  0.84595000  0.69917000  0.73292000  1
  O  O922  1  0.84976000  0.81448000  0.28192000  1
  O  O923  1  0.84976000  0.81448000  0.71808000  1
  O  O924  1  0.86412000  0.26630000  0.46404000  1
  O  O925  1  0.86412000  0.26630000  0.53596000  1
  O  O926  1  0.86725000  0.12634000  0.32270000  1
  O  O927  1  0.86725000  0.12634000  0.67730000  1
  O  O928  1  0.87366000  0.86725000  0.32270000  1
  O  O929  1  0.87366000  0.86725000  0.67730000  1
  O  O930  1  0.87521000  0.43472000  0.03512000  1
  O  O931  1  0.87521000  0.43472000  0.96488000  1
  O  O932  1  0.90617000  0.70192000  0.33050000  1
  O  O933  1  0.90617000  0.70192000  0.66950000  1
  O  O934  1  0.93405000  0.75574000  0.36913000  1
  O  O935  1  0.93405000  0.75574000  0.63087000  1
  O  O936  1  0.93472000  0.37521000  0.46488000  1
  O  O937  1  0.93472000  0.37521000  0.53512000  1
  O  O938  1  0.93760000  0.76353000  0.27835000  1
  O  O939  1  0.93760000  0.76353000  0.72165000  1
  O  O940  1  0.96054000  0.29626000  0.46388000  1
  O  O941  1  0.96054000  0.29626000  0.53612000  1
  O  O942  1  0.96260000  0.81807000  0.31755000  1
  O  O943  1  0.96260000  0.81807000  0.68245000  1
