# generated using pymatgen
data_Cu3H88(C5N3)11
_symmetry_space_group_name_H-M   'P 1'
_cell_length_a   15.86670000
_cell_length_b   15.86670000
_cell_length_c   54.08170000
_cell_angle_alpha   92.62310000
_cell_angle_beta   95.86610000
_cell_angle_gamma   119.71200000
_symmetry_Int_Tables_number   1
_chemical_formula_structural   Cu3H88(C5N3)11
_chemical_formula_sum   'Cu12 H352 C220 N132'
_cell_volume   11689.75731730
_cell_formula_units_Z   4
loop_
 _symmetry_equiv_pos_site_id
 _symmetry_equiv_pos_as_xyz
  1  'x, y, z'
loop_
 _atom_site_type_symbol
 _atom_site_label
 _atom_site_symmetry_multiplicity
 _atom_site_fract_x
 _atom_site_fract_y
 _atom_site_fract_z
 _atom_site_occupancy
  Cu  Cu0  1  0.91534000  0.68346000  0.42304000  1
  Cu  Cu1  1  0.86042000  0.73415000  0.75729000  1
  Cu  Cu2  1  0.76042000  0.49230000  0.07696000  1
  Cu  Cu3  1  0.73842000  0.99974000  0.92674000  1
  Cu  Cu4  1  0.57300000  0.81168000  0.57326000  1
  Cu  Cu5  1  0.52314000  0.89687000  0.25729000  1
  Cu  Cu6  1  0.47686000  0.10313000  0.74271000  1
  Cu  Cu7  1  0.42700000  0.18832000  0.42674000  1
  Cu  Cu8  1  0.26158000  0.00026000  0.07326000  1
  Cu  Cu9  1  0.23958000  0.50770000  0.92304000  1
  Cu  Cu10  1  0.13958000  0.26585000  0.24271000  1
  Cu  Cu11  1  0.08466000  0.31654000  0.57696000  1
  H  H12  1  0.99880000  0.63200000  0.30020000  1
  H  H13  1  0.99520000  0.74710000  0.32890000  1
  H  H14  1  0.99450000  0.83210000  0.60760000  1
  H  H15  1  0.98490000  0.65480000  0.19350000  1
  H  H16  1  0.98320000  0.88130000  0.68930000  1
  H  H17  1  0.98310000  0.12110000  0.54160000  1
  H  H18  1  0.97810000  0.84970000  0.19480000  1
  H  H19  1  0.96860000  0.64090000  0.00170000  1
  H  H20  1  0.96860000  0.31620000  0.32660000  1
  H  H21  1  0.96800000  0.49220000  0.80340000  1
  H  H22  1  0.96600000  0.75120000  0.53020000  1
  H  H23  1  0.96500000  0.80770000  0.98810000  1
  H  H24  1  0.96390000  0.04330000  0.23200000  1
  H  H25  1  0.96130000  0.79140000  0.30650000  1
  H  H26  1  0.96100000  0.13080000  0.43340000  1
  H  H27  1  0.95830000  0.27800000  0.01410000  1
  H  H28  1  0.95650000  0.94240000  0.70830000  1
  H  H29  1  0.95580000  0.93320000  0.32300000  1
  H  H30  1  0.95530000  0.89730000  0.56180000  1
  H  H31  1  0.95530000  0.66650000  0.27740000  1
  H  H32  1  0.95480000  0.17460000  0.78580000  1
  H  H33  1  0.95440000  0.51940000  0.39220000  1
  H  H34  1  0.95400000  0.83020000  0.24640000  1
  H  H35  1  0.95230000  0.35350000  0.53260000  1
  H  H36  1  0.94730000  0.63210000  0.79220000  1
  H  H37  1  0.94670000  0.67550000  0.10900000  1
  H  H38  1  0.93630000  0.44090000  0.08100000  1
  H  H39  1  0.93500000  0.15190000  0.90330000  1
  H  H40  1  0.93350000  0.16230000  0.60900000  1
  H  H41  1  0.92300000  0.16540000  0.33520000  1
  H  H42  1  0.92080000  0.01610000  0.37330000  1
  H  H43  1  0.92050000  0.87230000  0.60260000  1
  H  H44  1  0.92050000  0.55850000  0.04160000  1
  H  H45  1  0.91830000  0.39980000  0.78270000  1
  H  H46  1  0.91820000  0.66630000  0.17110000  1
  H  H47  1  0.91620000  0.29240000  0.74640000  1
  H  H48  1  0.91490000  0.94280000  0.65590000  1
  H  H49  1  0.91410000  0.70580000  0.57230000  1
  H  H50  1  0.90880000  0.19900000  0.23640000  1
  H  H51  1  0.90750000  0.70810000  0.70120000  1
  H  H52  1  0.90650000  0.74910000  0.00960000  1
  H  H53  1  0.90650000  0.31690000  0.47440000  1
  H  H54  1  0.90400000  0.22860000  0.37600000  1
  H  H55  1  0.89830000  0.99070000  0.32240000  1
  H  H56  1  0.89480000  0.86240000  0.22700000  1
  H  H57  1  0.89130000  0.52240000  0.89890000  1
  H  H58  1  0.88980000  0.36720000  0.82300000  1
  H  H59  1  0.88910000  0.67790000  0.22260000  1
  H  H60  1  0.88880000  0.16900000  0.71420000  1
  H  H61  1  0.88690000  0.30080000  0.35910000  1
  H  H62  1  0.88290000  0.86440000  0.28270000  1
  H  H63  1  0.87970000  0.05060000  0.67430000  1
  H  H64  1  0.87650000  0.00760000  0.39890000  1
  H  H65  1  0.87630000  0.20540000  0.82570000  1
  H  H66  1  0.87200000  0.09290000  0.97930000  1
  H  H67  1  0.87100000  0.17320000  0.48040000  1
  H  H68  1  0.87050000  0.27660000  0.44490000  1
  H  H69  1  0.86740000  0.66500000  0.95880000  1
  H  H70  1  0.86730000  0.64930000  0.53040000  1
  H  H71  1  0.86460000  0.33220000  0.72700000  1
  H  H72  1  0.86400000  0.28510000  0.31150000  1
  H  H73  1  0.86390000  0.49830000  0.17760000  1
  H  H74  1  0.86080000  0.03310000  0.50170000  1
  H  H75  1  0.85990000  0.85530000  0.41900000  1
  H  H76  1  0.85750000  0.99720000  0.69930000  1
  H  H77  1  0.85720000  0.45250000  0.87330000  1
  H  H78  1  0.85330000  0.81810000  0.52420000  1
  H  H79  1  0.84620000  0.52400000  0.31380000  1
  H  H80  1  0.84510000  0.21670000  0.69480000  1
  H  H81  1  0.84160000  0.51890000  0.20450000  1
  H  H82  1  0.84100000  0.67640000  0.36680000  1
  H  H83  1  0.83860000  0.85400000  0.66940000  1
  H  H84  1  0.83550000  0.39350000  0.93820000  1
  H  H85  1  0.83280000  0.73550000  0.56470000  1
  H  H86  1  0.83280000  0.11730000  0.31330000  1
  H  H87  1  0.83180000  0.69860000  0.19980000  1
  H  H88  1  0.83170000  0.42410000  0.82240000  1
  H  H89  1  0.83120000  0.23060000  0.92620000  1
  H  H90  1  0.82070000  0.68630000  0.32240000  1
  H  H91  1  0.81880000  0.29410000  0.39630000  1
  H  H92  1  0.81440000  0.63710000  0.29550000  1
  H  H93  1  0.81120000  0.83540000  0.30340000  1
  H  H94  1  0.80980000  0.45620000  0.42300000  1
  H  H95  1  0.80960000  0.47420000  0.13320000  1
  H  H96  1  0.80720000  0.60940000  0.98040000  1
  H  H97  1  0.80440000  0.90500000  0.57380000  1
  H  H98  1  0.80260000  0.47240000  0.93340000  1
  H  H99  1  0.79940000  0.79430000  0.80810000  1
  H  H100  1  0.79790000  0.15820000  0.80070000  1
  H  H101  1  0.79400000  0.63650000  0.46970000  1
  H  H102  1  0.79390000  0.32910000  0.97580000  1
  H  H103  1  0.79380000  0.09140000  0.45880000  1
  H  H104  1  0.78870000  0.74470000  0.95300000  1
  H  H105  1  0.78690000  0.25900000  0.84410000  1
  H  H106  1  0.78130000  0.02340000  0.82130000  1
  H  H107  1  0.77500000  0.09360000  0.35280000  1
  H  H108  1  0.77370000  0.34590000  0.47380000  1
  H  H109  1  0.77140000  0.70670000  0.51490000  1
  H  H110  1  0.77050000  0.74690000  0.98180000  1
  H  H111  1  0.76970000  0.31790000  0.89740000  1
  H  H112  1  0.76390000  0.94420000  0.48590000  1
  H  H113  1  0.76050000  0.10310000  0.50960000  1
  H  H114  1  0.75920000  0.57780000  0.85280000  1
  H  H115  1  0.75740000  0.86270000  0.74330000  1
  H  H116  1  0.75360000  0.17740000  0.39100000  1
  H  H117  1  0.75090000  0.31780000  0.44390000  1
  H  H118  1  0.74950000  0.51910000  0.32160000  1
  H  H119  1  0.74860000  0.03170000  0.59670000  1
  H  H120  1  0.74730000  0.33120000  0.29090000  1
  H  H121  1  0.74680000  0.85350000  0.88690000  1
  H  H122  1  0.73940000  0.15930000  0.33830000  1
  H  H123  1  0.73900000  0.01510000  0.23870000  1
  H  H124  1  0.73490000  0.21130000  0.48180000  1
  H  H125  1  0.73410000  0.24820000  0.79170000  1
  H  H126  1  0.73080000  0.30000000  0.35720000  1
  H  H127  1  0.72450000  0.38690000  0.89240000  1
  H  H128  1  0.72360000  0.49970000  0.73870000  1
  H  H129  1  0.72100000  0.43580000  0.96980000  1
  H  H130  1  0.71530000  0.29900000  0.26130000  1
  H  H131  1  0.71360000  0.63740000  0.89100000  1
  H  H132  1  0.71020000  0.53240000  0.18620000  1
  H  H133  1  0.70830000  0.16430000  0.45300000  1
  H  H134  1  0.70570000  0.86090000  0.67420000  1
  H  H135  1  0.70210000  0.96000000  0.67870000  1
  H  H136  1  0.69750000  0.42790000  0.17840000  1
  H  H137  1  0.69600000  0.48050000  0.81330000  1
  H  H138  1  0.69200000  0.29390000  0.81070000  1
  H  H139  1  0.69180000  0.25650000  0.98510000  1
  H  H140  1  0.68870000  0.26810000  0.73200000  1
  H  H141  1  0.68670000  0.03150000  0.82580000  1
  H  H142  1  0.68460000  0.16920000  0.83060000  1
  H  H143  1  0.68040000  0.02310000  0.48810000  1
  H  H144  1  0.67910000  0.58030000  0.03260000  1
  H  H145  1  0.67900000  0.59890000  0.83830000  1
  H  H146  1  0.67240000  0.70130000  0.85770000  1
  H  H147  1  0.67080000  0.26810000  0.93530000  1
  H  H148  1  0.66980000  0.41220000  0.83520000  1
  H  H149  1  0.66830000  0.57440000  0.94490000  1
  H  H150  1  0.66680000  0.32430000  0.03030000  1
  H  H151  1  0.66460000  0.99330000  0.87010000  1
  H  H152  1  0.66010000  0.84490000  0.29220000  1
  H  H153  1  0.65750000  0.56790000  0.97440000  1
  H  H154  1  0.65640000  0.18530000  0.35770000  1
  H  H155  1  0.64740000  0.47200000  0.87600000  1
  H  H156  1  0.64710000  0.39390000  0.27020000  1
  H  H157  1  0.64270000  0.12380000  0.24970000  1
  H  H158  1  0.63350000  0.34180000  0.92770000  1
  H  H159  1  0.62790000  0.70010000  0.97380000  1
  H  H160  1  0.62720000  0.56220000  0.10780000  1
  H  H161  1  0.62610000  0.69300000  0.94390000  1
  H  H162  1  0.62590000  0.60700000  0.74970000  1
  H  H163  1  0.62370000  0.37690000  0.22980000  1
  H  H164  1  0.62320000  0.79450000  0.62990000  1
  H  H165  1  0.61940000  0.01410000  0.75670000  1
  H  H166  1  0.61890000  0.33690000  0.96960000  1
  H  H167  1  0.61840000  0.39240000  0.42260000  1
  H  H168  1  0.61360000  0.89270000  0.52070000  1
  H  H169  1  0.61350000  0.34610000  0.29520000  1
  H  H170  1  0.60220000  0.57750000  0.89630000  1
  H  H171  1  0.56380000  0.79030000  0.77170000  1
  H  H172  1  0.55830000  0.47220000  0.85910000  1
  H  H173  1  0.55720000  0.62640000  0.85720000  1
  H  H174  1  0.55090000  0.31830000  0.20480000  1
  H  H175  1  0.54030000  0.45640000  0.20910000  1
  H  H176  1  0.53770000  0.45400000  0.23870000  1
  H  H177  1  0.53760000  0.21010000  0.23230000  1
  H  H178  1  0.53740000  0.32760000  0.73640000  1
  H  H179  1  0.53340000  0.14010000  0.38690000  1
  H  H180  1  0.53320000  0.38680000  0.07700000  1
  H  H181  1  0.53020000  0.80420000  0.92260000  1
  H  H182  1  0.52640000  0.44750000  0.81150000  1
  H  H183  1  0.52220000  0.69470000  0.73230000  1
  H  H184  1  0.51860000  0.79210000  0.72830000  1
  H  H185  1  0.51380000  0.00870000  0.30810000  1
  H  H186  1  0.51040000  0.35800000  0.82660000  1
  H  H187  1  0.50690000  0.20630000  0.79880000  1
  H  H188  1  0.49310000  0.79370000  0.20120000  1
  H  H189  1  0.48960000  0.64200000  0.17340000  1
  H  H190  1  0.48620000  0.99130000  0.69190000  1
  H  H191  1  0.48140000  0.20790000  0.27170000  1
  H  H192  1  0.47780000  0.30530000  0.26770000  1
  H  H193  1  0.47360000  0.55250000  0.18850000  1
  H  H194  1  0.46980000  0.19580000  0.07740000  1
  H  H195  1  0.46680000  0.61320000  0.92300000  1
  H  H196  1  0.46660000  0.85990000  0.61310000  1
  H  H197  1  0.46260000  0.67240000  0.26360000  1
  H  H198  1  0.46240000  0.78990000  0.76770000  1
  H  H199  1  0.46230000  0.54600000  0.76130000  1
  H  H200  1  0.45970000  0.54360000  0.79090000  1
  H  H201  1  0.44910000  0.68170000  0.79520000  1
  H  H202  1  0.44280000  0.37360000  0.14280000  1
  H  H203  1  0.44170000  0.52780000  0.14090000  1
  H  H204  1  0.43620000  0.20970000  0.22830000  1
  H  H205  1  0.39780000  0.42250000  0.10370000  1
  H  H206  1  0.38650000  0.65390000  0.70480000  1
  H  H207  1  0.38640000  0.10730000  0.47930000  1
  H  H208  1  0.38160000  0.60760000  0.57740000  1
  H  H209  1  0.38110000  0.66310000  0.03040000  1
  H  H210  1  0.38060000  0.98590000  0.24330000  1
  H  H211  1  0.37680000  0.20550000  0.37010000  1
  H  H212  1  0.37630000  0.62310000  0.77020000  1
  H  H213  1  0.37410000  0.39300000  0.25030000  1
  H  H214  1  0.37390000  0.30700000  0.05610000  1
  H  H215  1  0.37280000  0.43780000  0.89220000  1
  H  H216  1  0.37210000  0.29990000  0.02620000  1
  H  H217  1  0.36650000  0.65820000  0.07230000  1
  H  H218  1  0.35730000  0.87620000  0.75030000  1
  H  H219  1  0.35290000  0.60610000  0.72980000  1
  H  H220  1  0.35260000  0.52800000  0.12400000  1
  H  H221  1  0.34360000  0.81470000  0.64230000  1
  H  H222  1  0.34250000  0.43210000  0.02560000  1
  H  H223  1  0.33990000  0.15510000  0.70780000  1
  H  H224  1  0.33540000  0.00670000  0.12990000  1
  H  H225  1  0.33320000  0.67570000  0.96970000  1
  H  H226  1  0.33170000  0.42560000  0.05510000  1
  H  H227  1  0.33020000  0.58780000  0.16480000  1
  H  H228  1  0.32920000  0.73190000  0.06470000  1
  H  H229  1  0.32760000  0.29870000  0.14230000  1
  H  H230  1  0.32100000  0.40110000  0.16170000  1
  H  H231  1  0.32090000  0.41970000  0.96740000  1
  H  H232  1  0.31960000  0.97690000  0.51190000  1
  H  H233  1  0.31540000  0.83080000  0.16940000  1
  H  H234  1  0.31330000  0.96850000  0.17420000  1
  H  H235  1  0.31130000  0.73190000  0.26800000  1
  H  H236  1  0.30820000  0.74350000  0.01490000  1
  H  H237  1  0.30800000  0.70610000  0.18930000  1
  H  H238  1  0.30400000  0.51950000  0.18670000  1
  H  H239  1  0.30250000  0.57210000  0.82160000  1
  H  H240  1  0.29790000  0.04000000  0.32130000  1
  H  H241  1  0.29430000  0.13910000  0.32580000  1
  H  H242  1  0.29170000  0.83570000  0.54700000  1
  H  H243  1  0.28980000  0.46760000  0.81380000  1
  H  H244  1  0.28640000  0.36260000  0.10900000  1
  H  H245  1  0.28470000  0.70100000  0.73870000  1
  H  H246  1  0.27900000  0.56420000  0.03020000  1
  H  H247  1  0.27640000  0.50030000  0.26130000  1
  H  H248  1  0.27550000  0.61310000  0.10760000  1
  H  H249  1  0.26920000  0.70000000  0.64280000  1
  H  H250  1  0.26590000  0.75180000  0.20830000  1
  H  H251  1  0.26510000  0.78870000  0.51820000  1
  H  H252  1  0.26100000  0.98490000  0.76130000  1
  H  H253  1  0.26060000  0.84070000  0.66170000  1
  H  H254  1  0.25320000  0.14650000  0.11310000  1
  H  H255  1  0.25270000  0.66880000  0.70910000  1
  H  H256  1  0.25140000  0.96830000  0.40330000  1
  H  H257  1  0.25050000  0.48090000  0.67840000  1
  H  H258  1  0.24910000  0.68220000  0.55610000  1
  H  H259  1  0.24640000  0.82260000  0.60900000  1
  H  H260  1  0.24260000  0.13730000  0.25670000  1
  H  H261  1  0.24080000  0.42220000  0.14720000  1
  H  H262  1  0.23950000  0.89690000  0.49040000  1
  H  H263  1  0.23610000  0.05580000  0.51410000  1
  H  H264  1  0.23030000  0.68210000  0.10260000  1
  H  H265  1  0.22950000  0.25310000  0.01820000  1
  H  H266  1  0.22860000  0.29330000  0.48510000  1
  H  H267  1  0.22630000  0.65410000  0.52620000  1
  H  H268  1  0.22500000  0.90640000  0.64720000  1
  H  H269  1  0.21870000  0.97660000  0.17870000  1
  H  H270  1  0.21310000  0.74100000  0.15590000  1
  H  H271  1  0.21130000  0.25530000  0.04700000  1
  H  H272  1  0.20620000  0.90860000  0.54120000  1
  H  H273  1  0.20610000  0.67090000  0.02420000  1
  H  H274  1  0.20600000  0.36350000  0.53030000  1
  H  H275  1  0.20210000  0.84180000  0.19930000  1
  H  H276  1  0.20060000  0.20570000  0.19190000  1
  H  H277  1  0.19740000  0.52760000  0.06660000  1
  H  H278  1  0.19560000  0.09500000  0.42620000  1
  H  H279  1  0.19280000  0.39060000  0.01960000  1
  H  H280  1  0.19040000  0.52580000  0.86680000  1
  H  H281  1  0.19020000  0.54380000  0.57700000  1
  H  H282  1  0.18880000  0.16460000  0.69660000  1
  H  H283  1  0.18560000  0.36290000  0.70450000  1
  H  H284  1  0.18120000  0.70590000  0.60370000  1
  H  H285  1  0.17930000  0.31370000  0.67760000  1
  H  H286  1  0.16880000  0.76940000  0.07380000  1
  H  H287  1  0.16830000  0.57590000  0.17760000  1
  H  H288  1  0.16820000  0.30140000  0.80020000  1
  H  H289  1  0.16720000  0.88270000  0.68670000  1
  H  H290  1  0.16720000  0.26450000  0.43530000  1
  H  H291  1  0.16450000  0.60650000  0.06180000  1
  H  H292  1  0.16140000  0.14600000  0.33060000  1
  H  H293  1  0.15900000  0.32360000  0.63320000  1
  H  H294  1  0.15840000  0.48110000  0.79550000  1
  H  H295  1  0.15490000  0.78330000  0.30520000  1
  H  H296  1  0.15380000  0.47600000  0.68620000  1
  H  H297  1  0.14670000  0.18190000  0.47580000  1
  H  H298  1  0.14280000  0.54750000  0.12670000  1
  H  H299  1  0.14250000  0.00280000  0.30070000  1
  H  H300  1  0.14010000  0.14470000  0.58100000  1
  H  H301  1  0.13920000  0.96690000  0.49830000  1
  H  H302  1  0.13610000  0.50170000  0.82240000  1
  H  H303  1  0.13600000  0.71490000  0.68850000  1
  H  H304  1  0.13540000  0.66780000  0.27300000  1
  H  H305  1  0.13270000  0.35070000  0.46960000  1
  H  H306  1  0.13260000  0.33500000  0.04120000  1
  H  H307  1  0.12950000  0.72340000  0.55510000  1
  H  H308  1  0.12900000  0.82680000  0.51960000  1
  H  H309  1  0.12800000  0.90710000  0.02070000  1
  H  H310  1  0.12370000  0.79460000  0.17430000  1
  H  H311  1  0.12350000  0.99240000  0.60110000  1
  H  H312  1  0.12030000  0.94940000  0.32570000  1
  H  H313  1  0.11710000  0.13560000  0.71730000  1
  H  H314  1  0.11310000  0.69920000  0.64090000  1
  H  H315  1  0.11120000  0.83100000  0.28580000  1
  H  H316  1  0.11090000  0.32210000  0.77740000  1
  H  H317  1  0.11020000  0.63280000  0.17700000  1
  H  H318  1  0.10870000  0.47760000  0.10110000  1
  H  H319  1  0.10520000  0.13760000  0.77300000  1
  H  H320  1  0.10170000  0.00930000  0.67760000  1
  H  H321  1  0.09600000  0.77140000  0.62400000  1
  H  H322  1  0.09350000  0.68310000  0.52560000  1
  H  H323  1  0.09350000  0.25090000  0.99040000  1
  H  H324  1  0.09250000  0.29190000  0.29880000  1
  H  H325  1  0.09120000  0.80100000  0.76360000  1
  H  H326  1  0.08590000  0.29420000  0.42770000  1
  H  H327  1  0.08510000  0.05720000  0.34410000  1
  H  H328  1  0.08380000  0.70760000  0.25360000  1
  H  H329  1  0.08180000  0.33370000  0.82890000  1
  H  H330  1  0.08170000  0.60020000  0.21730000  1
  H  H331  1  0.07950000  0.44150000  0.95840000  1
  H  H332  1  0.07950000  0.12770000  0.39740000  1
  H  H333  1  0.07920000  0.98390000  0.62670000  1
  H  H334  1  0.07700000  0.83460000  0.66480000  1
  H  H335  1  0.06650000  0.83770000  0.39100000  1
  H  H336  1  0.06500000  0.84810000  0.09670000  1
  H  H337  1  0.06370000  0.55910000  0.91900000  1
  H  H338  1  0.05330000  0.32450000  0.89100000  1
  H  H339  1  0.05270000  0.36790000  0.20780000  1
  H  H340  1  0.04770000  0.64650000  0.46740000  1
  H  H341  1  0.04600000  0.16980000  0.75360000  1
  H  H342  1  0.04560000  0.48060000  0.60780000  1
  H  H343  1  0.04520000  0.82540000  0.21420000  1
  H  H344  1  0.04470000  0.33350000  0.72260000  1
  H  H345  1  0.04470000  0.10270000  0.43820000  1
  H  H346  1  0.04420000  0.06680000  0.67700000  1
  H  H347  1  0.04350000  0.05760000  0.29170000  1
  H  H348  1  0.04170000  0.72200000  0.98590000  1
  H  H349  1  0.03900000  0.86920000  0.56660000  1
  H  H350  1  0.03870000  0.20860000  0.69350000  1
  H  H351  1  0.03610000  0.95670000  0.76800000  1
  H  H352  1  0.03500000  0.19230000  0.01190000  1
  H  H353  1  0.03400000  0.24880000  0.46980000  1
  H  H354  1  0.03200000  0.50780000  0.19660000  1
  H  H355  1  0.03140000  0.68380000  0.67340000  1
  H  H356  1  0.03140000  0.35910000  0.99830000  1
  H  H357  1  0.02190000  0.15030000  0.80520000  1
  H  H358  1  0.01690000  0.87890000  0.45840000  1
  H  H359  1  0.01680000  0.11870000  0.31070000  1
  H  H360  1  0.01510000  0.34520000  0.80650000  1
  H  H361  1  0.00550000  0.16790000  0.39240000  1
  H  H362  1  0.00480000  0.25290000  0.67110000  1
  H  H363  1  0.00120000  0.36800000  0.69980000  1
  C  C364  1  0.99840000  0.68910000  0.29370000  1
  C  C365  1  0.99630000  0.28830000  1.00000000  1
  C  C366  1  0.98990000  0.58740000  0.46050000  1
  C  C367  1  0.98320000  0.87950000  0.59870000  1
  C  C368  1  0.97960000  0.81860000  0.21020000  1
  C  C369  1  0.97770000  0.14090000  0.60540000  1
  C  C370  1  0.97560000  0.95390000  0.76290000  1
  C  C371  1  0.97430000  0.85510000  0.57080000  1
  C  C372  1  0.97310000  0.93780000  0.69130000  1
  C  C373  1  0.96690000  0.83090000  0.46640000  1
  C  C374  1  0.96450000  0.62770000  0.10540000  1
  C  C375  1  0.96270000  0.72810000  0.71360000  1
  C  C376  1  0.95880000  0.86630000  0.23170000  1
  C  C377  1  0.95680000  0.73080000  0.31200000  1
  C  C378  1  0.95660000  0.50170000  0.09030000  1
  C  C379  1  0.93660000  0.22320000  0.25340000  1
  C  C380  1  0.93580000  0.01950000  0.39170000  1
  C  C381  1  0.93250000  0.96790000  0.31200000  1
  C  C382  1  0.93120000  0.74220000  0.99400000  1
  C  C383  1  0.92410000  0.54500000  0.38130000  1
  C  C384  1  0.91880000  0.64480000  0.18800000  1
  C  C385  1  0.91360000  0.26490000  0.31450000  1
  C  C386  1  0.91140000  0.86630000  0.40970000  1
  C  C387  1  0.90430000  0.44070000  0.79400000  1
  C  C388  1  0.89870000  0.74800000  0.56210000  1
  C  C389  1  0.89770000  0.72110000  0.53380000  1
  C  C390  1  0.89540000  0.70470000  0.20630000  1
  C  C391  1  0.89380000  0.58430000  0.78050000  1
  C  C392  1  0.89160000  0.23060000  0.71020000  1
  C  C393  1  0.89030000  0.92370000  0.67200000  1
  C  C394  1  0.87970000  0.12070000  0.89060000  1
  C  C395  1  0.87510000  0.14250000  0.96960000  1
  C  C396  1  0.87220000  0.45590000  0.89170000  1
  C  C397  1  0.86870000  0.17210000  0.32680000  1
  C  C398  1  0.86540000  0.27290000  0.73170000  1
  C  C399  1  0.86450000  0.50050000  0.03360000  1
  C  C400  1  0.86400000  0.63170000  0.36830000  1
  C  C401  1  0.86130000  0.48850000  0.43660000  1
  C  C402  1  0.85560000  0.21760000  0.94140000  1
  C  C403  1  0.85390000  0.23830000  0.36620000  1
  C  C404  1  0.85330000  0.88970000  0.29400000  1
  C  C405  1  0.85000000  0.28800000  0.46080000  1
  C  C406  1  0.84880000  0.65390000  0.31290000  1
  C  C407  1  0.84760000  0.70160000  0.47180000  1
  C  C408  1  0.84720000  0.98640000  0.68080000  1
  C  C409  1  0.84410000  0.37950000  0.81200000  1
  C  C410  1  0.84260000  0.75460000  0.51680000  1
  C  C411  1  0.84260000  0.67400000  0.97420000  1
  C  C412  1  0.84100000  0.53590000  0.18710000  1
  C  C413  1  0.82530000  0.90390000  0.74920000  1
  C  C414  1  0.82190000  0.55980000  0.32350000  1
  C  C415  1  0.80560000  0.16640000  0.81920000  1
  C  C416  1  0.80270000  0.34390000  0.45860000  1
  C  C417  1  0.80020000  0.13160000  0.47420000  1
  C  C418  1  0.79710000  0.15700000  0.34610000  1
  C  C419  1  0.78830000  0.99630000  0.50000000  1
  C  C420  1  0.78430000  0.40350000  0.92920000  1
  C  C421  1  0.78260000  0.23840000  0.38300000  1
  C  C422  1  0.78080000  0.38450000  0.90130000  1
  C  C423  1  0.77620000  0.91420000  0.55860000  1
  C  C424  1  0.77290000  0.51150000  0.75220000  1
  C  C425  1  0.77190000  0.70640000  0.96750000  1
  C  C426  1  0.76340000  0.49570000  0.13170000  1
  C  C427  1  0.76110000  0.19560000  0.46750000  1
  C  C428  1  0.75910000  0.06500000  0.82930000  1
  C  C429  1  0.75180000  0.06280000  0.49400000  1
  C  C430  1  0.75170000  0.21830000  0.82800000  1
  C  C431  1  0.74650000  0.28180000  0.80870000  1
  C  C432  1  0.74240000  0.74690000  0.79730000  1
  C  C433  1  0.74070000  0.97930000  0.25220000  1
  C  C434  1  0.73780000  0.32580000  0.98320000  1
  C  C435  1  0.73630000  0.49840000  0.17650000  1
  C  C436  1  0.73570000  0.92980000  0.67070000  1
  C  C437  1  0.73410000  0.03520000  0.87330000  1
  C  C438  1  0.73010000  0.98910000  0.60940000  1
  C  C439  1  0.72980000  0.37580000  0.02820000  1
  C  C440  1  0.70300000  0.24740000  0.36820000  1
  C  C441  1  0.69620000  0.88670000  0.28050000  1
  C  C442  1  0.69100000  0.21270000  0.73710000  1
  C  C443  1  0.69060000  0.29280000  0.27760000  1
  C  C444  1  0.68910000  0.54900000  0.84610000  1
  C  C445  1  0.68730000  0.36390000  0.96620000  1
  C  C446  1  0.68590000  0.33660000  0.93790000  1
  C  C447  1  0.68520000  0.82360000  0.89280000  1
  C  C448  1  0.67290000  0.90550000  0.53040000  1
  C  C449  1  0.67280000  0.61080000  0.96080000  1
  C  C450  1  0.66370000  0.54280000  0.11870000  1
  C  C451  1  0.66190000  0.86080000  0.62670000  1
  C  C452  1  0.65470000  0.45810000  0.82680000  1
  C  C453  1  0.65470000  0.07610000  0.75080000  1
  C  C454  1  0.65010000  0.64510000  0.76560000  1
  C  C455  1  0.64460000  0.60040000  0.88300000  1
  C  C456  1  0.62790000  0.51230000  0.86620000  1
  C  C457  1  0.62690000  0.52940000  0.03950000  1
  C  C458  1  0.62080000  0.66520000  0.86820000  1
  C  C459  1  0.62050000  0.11550000  0.26560000  1
  C  C460  1  0.61720000  0.33110000  0.27750000  1
  C  C461  1  0.61510000  0.34270000  0.41140000  1
  C  C462  1  0.61470000  0.65590000  0.95860000  1
  C  C463  1  0.56920000  0.20760000  0.39280000  1
  C  C464  1  0.56870000  0.79630000  0.91140000  1
  C  C465  1  0.55360000  0.33970000  0.22250000  1
  C  C466  1  0.55190000  0.42470000  0.06340000  1
  C  C467  1  0.55040000  0.05490000  0.29730000  1
  C  C468  1  0.54960000  0.40090000  0.81450000  1
  C  C469  1  0.53020000  0.31680000  0.75340000  1
  C  C470  1  0.51520000  0.41300000  0.22240000  1
  C  C471  1  0.51450000  0.24910000  0.78640000  1
  C  C472  1  0.51380000  0.27080000  0.26440000  1
  C  C473  1  0.50640000  0.24940000  0.23560000  1
  C  C474  1  0.49360000  0.75060000  0.76440000  1
  C  C475  1  0.48620000  0.72920000  0.73560000  1
  C  C476  1  0.48550000  0.75090000  0.21360000  1
  C  C477  1  0.48480000  0.58700000  0.77760000  1
  C  C478  1  0.46980000  0.68320000  0.24660000  1
  C  C479  1  0.45040000  0.59910000  0.18550000  1
  C  C480  1  0.44960000  0.94510000  0.70270000  1
  C  C481  1  0.44810000  0.57530000  0.93660000  1
  C  C482  1  0.44640000  0.66030000  0.77750000  1
  C  C483  1  0.43130000  0.20370000  0.08860000  1
  C  C484  1  0.43080000  0.79240000  0.60720000  1
  C  C485  1  0.38530000  0.34410000  0.04140000  1
  C  C486  1  0.38490000  0.65730000  0.58860000  1
  C  C487  1  0.38280000  0.66890000  0.72250000  1
  C  C488  1  0.37950000  0.88450000  0.73440000  1
  C  C489  1  0.37920000  0.33480000  0.13180000  1
  C  C490  1  0.37310000  0.47060000  0.96050000  1
  C  C491  1  0.37210000  0.48770000  0.13380000  1
  C  C492  1  0.35540000  0.39960000  0.11700000  1
  C  C493  1  0.34990000  0.35490000  0.23440000  1
  C  C494  1  0.34530000  0.92390000  0.24920000  1
  C  C495  1  0.34530000  0.54190000  0.17320000  1
  C  C496  1  0.33810000  0.13920000  0.37330000  1
  C  C497  1  0.33630000  0.45720000  0.88130000  1
  C  C498  1  0.32720000  0.38920000  0.03920000  1
  C  C499  1  0.32710000  0.09450000  0.46960000  1
  C  C500  1  0.31480000  0.17640000  0.10720000  1
  C  C501  1  0.31410000  0.66340000  0.06210000  1
  C  C502  1  0.31270000  0.63610000  0.03380000  1
  C  C503  1  0.31090000  0.45100000  0.15390000  1
  C  C504  1  0.30940000  0.70720000  0.72240000  1
  C  C505  1  0.30900000  0.78730000  0.26290000  1
  C  C506  1  0.30380000  0.11330000  0.71950000  1
  C  C507  1  0.29700000  0.75260000  0.63180000  1
  C  C508  1  0.27020000  0.62420000  0.97180000  1
  C  C509  1  0.26990000  0.01090000  0.39060000  1
  C  C510  1  0.26590000  0.96480000  0.12670000  1
  C  C511  1  0.26430000  0.07020000  0.32930000  1
  C  C512  1  0.26370000  0.50160000  0.82350000  1
  C  C513  1  0.26220000  0.67420000  0.01680000  1
  C  C514  1  0.25930000  0.02070000  0.74780000  1
  C  C515  1  0.25760000  0.25310000  0.20270000  1
  C  C516  1  0.25350000  0.71820000  0.19130000  1
  C  C517  1  0.24830000  0.78170000  0.17200000  1
  C  C518  1  0.24820000  0.93720000  0.50600000  1
  C  C519  1  0.24090000  0.93500000  0.17070000  1
  C  C520  1  0.23890000  0.80440000  0.53250000  1
  C  C521  1  0.23660000  0.50430000  0.86830000  1
  C  C522  1  0.22810000  0.29360000  0.03250000  1
  C  C523  1  0.22710000  0.48850000  0.24780000  1
  C  C524  1  0.22380000  0.08580000  0.44140000  1
  C  C525  1  0.21920000  0.61550000  0.09870000  1
  C  C526  1  0.21740000  0.76160000  0.61700000  1
  C  C527  1  0.21570000  0.59650000  0.07080000  1
  C  C528  1  0.21170000  0.00370000  0.50000000  1
  C  C529  1  0.20290000  0.84300000  0.65390000  1
  C  C530  1  0.19980000  0.86840000  0.52580000  1
  C  C531  1  0.19730000  0.65610000  0.54140000  1
  C  C532  1  0.19440000  0.83360000  0.18080000  1
  C  C533  1  0.17810000  0.44020000  0.67650000  1
  C  C534  1  0.17470000  0.09610000  0.25080000  1
  C  C535  1  0.15900000  0.46410000  0.81290000  1
  C  C536  1  0.15740000  0.32600000  0.02580000  1
  C  C537  1  0.15740000  0.24540000  0.48320000  1
  C  C538  1  0.15590000  0.62050000  0.18800000  1
  C  C539  1  0.15280000  0.01360000  0.31920000  1
  C  C540  1  0.15240000  0.29840000  0.52820000  1
  C  C541  1  0.15120000  0.34610000  0.68710000  1
  C  C542  1  0.15000000  0.71200000  0.53920000  1
  C  C543  1  0.14670000  0.11030000  0.70600000  1
  C  C544  1  0.14610000  0.76170000  0.63380000  1
  C  C545  1  0.14440000  0.78240000  0.05860000  1
  C  C546  1  0.13870000  0.51150000  0.56340000  1
  C  C547  1  0.13600000  0.36830000  0.63170000  1
  C  C548  1  0.13550000  0.49950000  0.96640000  1
  C  C549  1  0.13460000  0.72710000  0.26830000  1
  C  C550  1  0.13130000  0.82790000  0.67320000  1
  C  C551  1  0.12780000  0.54410000  0.10830000  1
  C  C552  1  0.12490000  0.85750000  0.03040000  1
  C  C553  1  0.12030000  0.87930000  0.10940000  1
  C  C554  1  0.10970000  0.07630000  0.32800000  1
  C  C555  1  0.10840000  0.76940000  0.28980000  1
  C  C556  1  0.10620000  0.41570000  0.21950000  1
  C  C557  1  0.10460000  0.29530000  0.79370000  1
  C  C558  1  0.10230000  0.27890000  0.46620000  1
  C  C559  1  0.10130000  0.25200000  0.43790000  1
  C  C560  1  0.09570000  0.55930000  0.20600000  1
  C  C561  1  0.08860000  0.13370000  0.59030000  1
  C  C562  1  0.08640000  0.73510000  0.68550000  1
  C  C563  1  0.08120000  0.35520000  0.81200000  1
  C  C564  1  0.07590000  0.45500000  0.61870000  1
  C  C565  1  0.06880000  0.25780000  0.00600000  1
  C  C566  1  0.06750000  0.03210000  0.68800000  1
  C  C567  1  0.06420000  0.98050000  0.60830000  1
  C  C568  1  0.06340000  0.77680000  0.74660000  1
  C  C569  1  0.04340000  0.49830000  0.90970000  1
  C  C570  1  0.04320000  0.26920000  0.68800000  1
  C  C571  1  0.04120000  0.13370000  0.76830000  1
  C  C572  1  0.03730000  0.27190000  0.28640000  1
  C  C573  1  0.03550000  0.37230000  0.89460000  1
  C  C574  1  0.03310000  0.16910000  0.53360000  1
  C  C575  1  0.02690000  0.06220000  0.30870000  1
  C  C576  1  0.02570000  0.14490000  0.42920000  1
  C  C577  1  0.02440000  0.04610000  0.23710000  1
  C  C578  1  0.02230000  0.85910000  0.39460000  1
  C  C579  1  0.02040000  0.18140000  0.78980000  1
  C  C580  1  0.01680000  0.12050000  0.40130000  1
  C  C581  1  0.01010000  0.41260000  0.53950000  1
  C  C582  1  0.00370000  0.71170000  0.00000000  1
  C  C583  1  0.00160000  0.31090000  0.70630000  1
  N  N584  1  0.96960000  0.06080000  0.61300000  1
  N  N585  1  0.96750000  0.75090000  0.73740000  1
  N  N586  1  0.96310000  0.02910000  0.76160000  1
  N  N587  1  0.96230000  0.49990000  0.46800000  1
  N  N588  1  0.95670000  0.84940000  0.48830000  1
  N  N589  1  0.95590000  0.44200000  0.89710000  1
  N  N590  1  0.95510000  0.94120000  0.39710000  1
  N  N591  1  0.95170000  0.26280000  0.29050000  1
  N  N592  1  0.94840000  0.80760000  0.40780000  1
  N  N593  1  0.94780000  0.35660000  0.88700000  1
  N  N594  1  0.92780000  0.23500000  0.97680000  1
  N  N595  1  0.92000000  0.28780000  0.95860000  1
  N  N596  1  0.91800000  0.57800000  0.44040000  1
  N  N597  1  0.90720000  0.74400000  0.45520000  1
  N  N598  1  0.90330000  0.61810000  0.38940000  1
  N  N599  1  0.89980000  0.54060000  0.09220000  1
  N  N600  1  0.89730000  0.51650000  0.35740000  1
  N  N601  1  0.88900000  0.23490000  0.26970000  1
  N  N602  1  0.88880000  0.87210000  0.75570000  1
  N  N603  1  0.88470000  0.44170000  0.45540000  1
  N  N604  1  0.88400000  0.13740000  0.86720000  1
  N  N605  1  0.87550000  0.76560000  0.49190000  1
  N  N606  1  0.87210000  0.00220000  0.75230000  1
  N  N607  1  0.86140000  0.57370000  0.34950000  1
  N  N608  1  0.86110000  0.46840000  0.01170000  1
  N  N609  1  0.86080000  0.48820000  0.77860000  1
  N  N610  1  0.83950000  0.60200000  0.76330000  1
  N  N611  1  0.82920000  0.96140000  0.54140000  1
  N  N612  1  0.82640000  0.12580000  0.94700000  1
  N  N613  1  0.82200000  0.97930000  0.26190000  1
  N  N614  1  0.79200000  0.08320000  0.85660000  1
  N  N615  1  0.79040000  0.91780000  0.27860000  1
  N  N616  1  0.78890000  0.05460000  0.89510000  1
  N  N617  1  0.78880000  0.45200000  0.04480000  1
  N  N618  1  0.78260000  0.43990000  0.76190000  1
  N  N619  1  0.77370000  0.38360000  0.00810000  1
  N  N620  1  0.77020000  0.01680000  0.63280000  1
  N  N621  1  0.76750000  0.20150000  0.73840000  1
  N  N622  1  0.75820000  0.95100000  0.52320000  1
  N  N623  1  0.74990000  0.11980000  0.74770000  1
  N  N624  1  0.74530000  0.70710000  0.77420000  1
  N  N625  1  0.72870000  0.51390000  0.11060000  1
  N  N626  1  0.72660000  0.93540000  0.64340000  1
  N  N627  1  0.72420000  0.51190000  0.15050000  1
  N  N628  1  0.68050000  0.35840000  0.39810000  1
  N  N629  1  0.67880000  0.87940000  0.55300000  1
  N  N630  1  0.66130000  0.92380000  0.26330000  1
  N  N631  1  0.65950000  0.89380000  0.60490000  1
  N  N632  1  0.65910000  0.53990000  0.14260000  1
  N  N633  1  0.65900000  0.86890000  0.90870000  1
  N  N634  1  0.65480000  0.71320000  0.80240000  1
  N  N635  1  0.65410000  0.27000000  0.38630000  1
  N  N636  1  0.63760000  0.47760000  0.05960000  1
  N  N637  1  0.63700000  0.18750000  0.28230000  1
  N  N638  1  0.61640000  0.13310000  0.74430000  1
  N  N639  1  0.61630000  0.73220000  0.88630000  1
  N  N640  1  0.59480000  0.64530000  0.78230000  1
  N  N641  1  0.58920000  0.14760000  0.30240000  1
  N  N642  1  0.56710000  0.02890000  0.27420000  1
  N  N643  1  0.53980000  0.24970000  0.40870000  1
  N  N644  1  0.53970000  0.71760000  0.89810000  1
  N  N645  1  0.53480000  0.38070000  0.76970000  1
  N  N646  1  0.53190000  0.49430000  0.03200000  1
  N  N647  1  0.52770000  0.33880000  0.79050000  1
  N  N648  1  0.51370000  0.57070000  0.95540000  1
  N  N649  1  0.51350000  0.23010000  0.76260000  1
  N  N650  1  0.48650000  0.76990000  0.23740000  1
  N  N651  1  0.48630000  0.42930000  0.04460000  1
  N  N652  1  0.47230000  0.66120000  0.20950000  1
  N  N653  1  0.46810000  0.50570000  0.96800000  1
  N  N654  1  0.46520000  0.61930000  0.23030000  1
  N  N655  1  0.46030000  0.28240000  0.10190000  1
  N  N656  1  0.46020000  0.75030000  0.59130000  1
  N  N657  1  0.43290000  0.97110000  0.72580000  1
  N  N658  1  0.41080000  0.85240000  0.69760000  1
  N  N659  1  0.40520000  0.35470000  0.21770000  1
  N  N660  1  0.38370000  0.26780000  0.11370000  1
  N  N661  1  0.38360000  0.86690000  0.25570000  1
  N  N662  1  0.36300000  0.81250000  0.71770000  1
  N  N663  1  0.36240000  0.52240000  0.94040000  1
  N  N664  1  0.34590000  0.73000000  0.61370000  1
  N  N665  1  0.34520000  0.28680000  0.19760000  1
  N  N666  1  0.34100000  0.13110000  0.09130000  1
  N  N667  1  0.34090000  0.46010000  0.85740000  1
  N  N668  1  0.34050000  0.10620000  0.39510000  1
  N  N669  1  0.33870000  0.07620000  0.73670000  1
  N  N670  1  0.32120000  0.12060000  0.44700000  1
  N  N671  1  0.31950000  0.64160000  0.60190000  1
  N  N672  1  0.27580000  0.48810000  0.84950000  1
  N  N673  1  0.27340000  0.06460000  0.35660000  1
  N  N674  1  0.27130000  0.48610000  0.88940000  1
  N  N675  1  0.25470000  0.29290000  0.22580000  1
  N  N676  1  0.25010000  0.88020000  0.25230000  1
  N  N677  1  0.24180000  0.04900000  0.47680000  1
  N  N678  1  0.23250000  0.79850000  0.26160000  1
  N  N679  1  0.22980000  0.98320000  0.36720000  1
  N  N680  1  0.22630000  0.61640000  0.99190000  1
  N  N681  1  0.21740000  0.56010000  0.23810000  1
  N  N682  1  0.21120000  0.54800000  0.95520000  1
  N  N683  1  0.21110000  0.94540000  0.10490000  1
  N  N684  1  0.20960000  0.08220000  0.72140000  1
  N  N685  1  0.20800000  0.91680000  0.14340000  1
  N  N686  1  0.17800000  0.02070000  0.73810000  1
  N  N687  1  0.17360000  0.87420000  0.05300000  1
  N  N688  1  0.17080000  0.03860000  0.45860000  1
  N  N689  1  0.16050000  0.39800000  0.23670000  1
  N  N690  1  0.13920000  0.51180000  0.22140000  1
  N  N691  1  0.13890000  0.53160000  0.98830000  1
  N  N692  1  0.13860000  0.42630000  0.65050000  1
  N  N693  1  0.12790000  0.99780000  0.24770000  1
  N  N694  1  0.12450000  0.23440000  0.50810000  1
  N  N695  1  0.11600000  0.86260000  0.13280000  1
  N  N696  1  0.11530000  0.55830000  0.54460000  1
  N  N697  1  0.11120000  0.12790000  0.24430000  1
  N  N698  1  0.11100000  0.76510000  0.73030000  1
  N  N699  1  0.10270000  0.48350000  0.64260000  1
  N  N700  1  0.10020000  0.45940000  0.90780000  1
  N  N701  1  0.09670000  0.38190000  0.61060000  1
  N  N702  1  0.09280000  0.25600000  0.54480000  1
  N  N703  1  0.08200000  0.42200000  0.55960000  1
  N  N704  1  0.08000000  0.71220000  0.04140000  1
  N  N705  1  0.07220000  0.76500000  0.02320000  1
  N  N706  1  0.05220000  0.64340000  0.11300000  1
  N  N707  1  0.05160000  0.19240000  0.59220000  1
  N  N708  1  0.04830000  0.73720000  0.70950000  1
  N  N709  1  0.04490000  0.05880000  0.60290000  1
  N  N710  1  0.04410000  0.55800000  0.10290000  1
  N  N711  1  0.04330000  0.15060000  0.51170000  1
  N  N712  1  0.03770000  0.50010000  0.53200000  1
  N  N713  1  0.03690000  0.97090000  0.23840000  1
  N  N714  1  0.03250000  0.24910000  0.26260000  1
  N  N715  1  0.03040000  0.93920000  0.38700000  1
