# generated using pymatgen
data_Ni2H33C48(N2O5)2
_symmetry_space_group_name_H-M   'P 1'
_cell_length_a   11.27500000
_cell_length_b   13.28800000
_cell_length_c   18.77400000
_cell_angle_alpha   92.21100000
_cell_angle_beta   100.98800000
_cell_angle_gamma   104.96000000
_symmetry_Int_Tables_number   1
_chemical_formula_structural   Ni2H33C48(N2O5)2
_chemical_formula_sum   'Ni4 H66 C96 N8 O20'
_cell_volume   2656.15714939
_cell_formula_units_Z   2
loop_
 _symmetry_equiv_pos_site_id
 _symmetry_equiv_pos_as_xyz
  1  'x, y, z'
loop_
 _atom_site_type_symbol
 _atom_site_label
 _atom_site_symmetry_multiplicity
 _atom_site_fract_x
 _atom_site_fract_y
 _atom_site_fract_z
 _atom_site_occupancy
  Ni  Ni0  1  0.04928000  0.60947000  0.92827000  1
  Ni  Ni1  1  0.50000000  0.00000000  0.00000000  1
  Ni  Ni2  1  0.50000000  0.50000000  0.50000000  1
  Ni  Ni3  1  0.95072000  0.39053000  0.07173000  1
  H  H4  1  0.02390000  0.29550000  0.54050000  1
  H  H5  1  0.06650000  0.31730000  0.30450000  1
  H  H6  1  0.09130000  0.86030000  0.42790000  1
  H  H7  1  0.09760000  0.21590000  0.39940000  1
  H  H8  1  0.10260000  0.60280000  0.23120000  1
  H  H9  1  0.10510000  0.04130000  0.72830000  1
  H  H10  1  0.10690000  0.30050000  0.98380000  1
  H  H11  1  0.13670000  0.93960000  0.82460000  1
  H  H12  1  0.15260000  0.73570000  0.57490000  1
  H  H13  1  0.15280000  0.84070000  0.10660000  1
  H  H14  1  0.17930000  0.71950000  0.33490000  1
  H  H15  1  0.19260000  0.50060000  0.84330000  1
  H  H16  1  0.20980000  0.47780000  0.16460000  1
  H  H17  1  0.21100000  0.03040000  0.60060000  1
  H  H18  1  0.21870000  0.95850000  0.21050000  1
  H  H19  1  0.29880000  0.05260000  0.44660000  1
  H  H20  1  0.30590000  0.23160000  0.28230000  1
  H  H21  1  0.30720000  0.19560000  0.16110000  1
  H  H22  1  0.30870000  0.31020000  0.97910000  1
  H  H23  1  0.31140000  0.69220000  0.01790000  1
  H  H24  1  0.31520000  0.33710000  0.38370000  1
  H  H25  1  0.31580000  0.09470000  0.06100000  1
  H  H26  1  0.32700000  0.18740000  0.56930000  1
  H  H27  1  0.32950000  0.77690000  0.76320000  1
  H  H28  1  0.33100000  0.62500000  0.70680000  1
  H  H29  1  0.33150000  0.88150000  0.86370000  1
  H  H30  1  0.33200000  0.53040000  0.60310000  1
  H  H31  1  0.36470000  0.93600000  0.66250000  1
  H  H32  1  0.39030000  0.49250000  0.84060000  1
  H  H33  1  0.41650000  0.49160000  0.16600000  1
  H  H34  1  0.44620000  0.94150000  0.29270000  1
  H  H35  1  0.48680000  0.31050000  0.98010000  1
  H  H36  1  0.48810000  0.17320000  0.49130000  1
  H  H37  1  0.51190000  0.82680000  0.50870000  1
  H  H38  1  0.51320000  0.68950000  0.01990000  1
  H  H39  1  0.55380000  0.05850000  0.70730000  1
  H  H40  1  0.58350000  0.50840000  0.83400000  1
  H  H41  1  0.60970000  0.50750000  0.15940000  1
  H  H42  1  0.63530000  0.06400000  0.33750000  1
  H  H43  1  0.66800000  0.46960000  0.39690000  1
  H  H44  1  0.66850000  0.11850000  0.13630000  1
  H  H45  1  0.66900000  0.37500000  0.29320000  1
  H  H46  1  0.67050000  0.22310000  0.23680000  1
  H  H47  1  0.67300000  0.81260000  0.43070000  1
  H  H48  1  0.68420000  0.90530000  0.93900000  1
  H  H49  1  0.68480000  0.66290000  0.61630000  1
  H  H50  1  0.68860000  0.30780000  0.98210000  1
  H  H51  1  0.69130000  0.68980000  0.02090000  1
  H  H52  1  0.69280000  0.80440000  0.83890000  1
  H  H53  1  0.69410000  0.76840000  0.71770000  1
  H  H54  1  0.70120000  0.94740000  0.55340000  1
  H  H55  1  0.78130000  0.04150000  0.78950000  1
  H  H56  1  0.78900000  0.96960000  0.39940000  1
  H  H57  1  0.79020000  0.52220000  0.83540000  1
  H  H58  1  0.80740000  0.49940000  0.15670000  1
  H  H59  1  0.82070000  0.28050000  0.66510000  1
  H  H60  1  0.84720000  0.15930000  0.89340000  1
  H  H61  1  0.84740000  0.26430000  0.42510000  1
  H  H62  1  0.86330000  0.06040000  0.17540000  1
  H  H63  1  0.89310000  0.69950000  0.01620000  1
  H  H64  1  0.89490000  0.95870000  0.27170000  1
  H  H65  1  0.89740000  0.39720000  0.76880000  1
  H  H66  1  0.90240000  0.78410000  0.60060000  1
  H  H67  1  0.90870000  0.13970000  0.57210000  1
  H  H68  1  0.93350000  0.68270000  0.69550000  1
  H  H69  1  0.97610000  0.70450000  0.45950000  1
  C  C70  1  0.00071000  0.92185000  0.65563000  1
  C  C71  1  0.00728000  0.85106000  0.42953000  1
  C  C72  1  0.03212000  0.24516000  0.29748000  1
  C  C73  1  0.03806000  0.80174000  0.77074000  1
  C  C74  1  0.04854000  0.07045000  0.58695000  1
  C  C75  1  0.05038000  0.18459000  0.35418000  1
  C  C76  1  0.05483000  0.73466000  0.83113000  1
  C  C77  1  0.06170000  0.24189000  0.55141000  1
  C  C78  1  0.07047000  0.96919000  0.72181000  1
  C  C79  1  0.07538000  0.63364000  0.09199000  1
  C  C80  1  0.08901000  0.90787000  0.77950000  1
  C  C81  1  0.12169000  0.71040000  0.15799000  1
  C  C82  1  0.12828000  0.67427000  0.22682000  1
  C  C83  1  0.15664000  0.81593000  0.15246000  1
  C  C84  1  0.17016000  0.34062000  0.02099000  1
  C  C85  1  0.17278000  0.74374000  0.28885000  1
  C  C86  1  0.17318000  0.08336000  0.58763000  1
  C  C87  1  0.18629000  0.25616000  0.54837000  1
  C  C88  1  0.19790000  0.88681000  0.21452000  1
  C  C89  1  0.20709000  0.84880000  0.28129000  1
  C  C90  1  0.23003000  0.44365000  0.12634000  1
  C  C91  1  0.24196000  0.17730000  0.56853000  1
  C  C92  1  0.25731000  0.35419000  0.52123000  1
  C  C93  1  0.25834000  0.54012000  0.87938000  1
  C  C94  1  0.29172000  0.34578000  0.01797000  1
  C  C95  1  0.30266000  0.78430000  0.55330000  1
  C  C96  1  0.32724000  0.65179000  0.98113000  1
  C  C97  1  0.35430000  0.98564000  0.36538000  1
  C  C98  1  0.35520000  0.45240000  0.12760000  1
  C  C99  1  0.36668000  0.05488000  0.42465000  1
  C  C100  1  0.37736000  0.53526000  0.87711000  1
  C  C101  1  0.38096000  0.27988000  0.30432000  1
  C  C102  1  0.38249000  0.18166000  0.15715000  1
  C  C103  1  0.38792000  0.12009000  0.09713000  1
  C  C104  1  0.38814000  0.34293000  0.36611000  1
  C  C105  1  0.38942000  0.40299000  0.07177000  1
  C  C106  1  0.40339000  0.80249000  0.79799000  1
  C  C107  1  0.40422000  0.63602000  0.68873000  1
  C  C108  1  0.40531000  0.86544000  0.85887000  1
  C  C109  1  0.40605000  0.57880000  0.62655000  1
  C  C110  1  0.41953000  0.86842000  0.58162000  1
  C  C111  1  0.43261000  0.93829000  0.64058000  1
  C  C112  1  0.44943000  0.65088000  0.98240000  1
  C  C113  1  0.45469000  0.98852000  0.33257000  1
  C  C114  1  0.47840000  0.59366000  0.92892000  1
  C  C115  1  0.47938000  0.12695000  0.45105000  1
  C  C116  1  0.48771000  0.28982000  0.27565000  1
  C  C117  1  0.48833000  0.22218000  0.21089000  1
  C  C118  1  0.51167000  0.77782000  0.78911000  1
  C  C119  1  0.51229000  0.71018000  0.72435000  1
  C  C120  1  0.52062000  0.87305000  0.54895000  1
  C  C121  1  0.52160000  0.40634000  0.07108000  1
  C  C122  1  0.54531000  0.01148000  0.66743000  1
  C  C123  1  0.55057000  0.34912000  0.01760000  1
  C  C124  1  0.56739000  0.06171000  0.35942000  1
  C  C125  1  0.58047000  0.13158000  0.41838000  1
  C  C126  1  0.59395000  0.42120000  0.37345000  1
  C  C127  1  0.59469000  0.13456000  0.14113000  1
  C  C128  1  0.59578000  0.36398000  0.31127000  1
  C  C129  1  0.59661000  0.19751000  0.20201000  1
  C  C130  1  0.61058000  0.59701000  0.92823000  1
  C  C131  1  0.61186000  0.65707000  0.63389000  1
  C  C132  1  0.61208000  0.87991000  0.90287000  1
  C  C133  1  0.61751000  0.81834000  0.84285000  1
  C  C134  1  0.61904000  0.72012000  0.69568000  1
  C  C135  1  0.62264000  0.46474000  0.12289000  1
  C  C136  1  0.63332000  0.94512000  0.57535000  1
  C  C137  1  0.64480000  0.54760000  0.87240000  1
  C  C138  1  0.64570000  0.01436000  0.63462000  1
  C  C139  1  0.67276000  0.34821000  0.01887000  1
  C  C140  1  0.69734000  0.21570000  0.44670000  1
  C  C141  1  0.70828000  0.65422000  0.98203000  1
  C  C142  1  0.74166000  0.45988000  0.12062000  1
  C  C143  1  0.74269000  0.64581000  0.47877000  1
  C  C144  1  0.75804000  0.82270000  0.43147000  1
  C  C145  1  0.76997000  0.55635000  0.87366000  1
  C  C146  1  0.79291000  0.15120000  0.71871000  1
  C  C147  1  0.80210000  0.11319000  0.78548000  1
  C  C148  1  0.81371000  0.74384000  0.45163000  1
  C  C149  1  0.82682000  0.91664000  0.41237000  1
  C  C150  1  0.82722000  0.25626000  0.71115000  1
  C  C151  1  0.82984000  0.65938000  0.97901000  1
  C  C152  1  0.84336000  0.18407000  0.84754000  1
  C  C153  1  0.87172000  0.32573000  0.77318000  1
  C  C154  1  0.87831000  0.28960000  0.84201000  1
  C  C155  1  0.91099000  0.09213000  0.22050000  1
  C  C156  1  0.92462000  0.36636000  0.90801000  1
  C  C157  1  0.92953000  0.03081000  0.27819000  1
  C  C158  1  0.93830000  0.75811000  0.44859000  1
  C  C159  1  0.94517000  0.26534000  0.16887000  1
  C  C160  1  0.94962000  0.81541000  0.64582000  1
  C  C161  1  0.95146000  0.92955000  0.41305000  1
  C  C162  1  0.96194000  0.19826000  0.22926000  1
  C  C163  1  0.96788000  0.75484000  0.70252000  1
  C  C164  1  0.99272000  0.14894000  0.57047000  1
  C  C165  1  0.99929000  0.07815000  0.34437000  1
  N  N166  1  0.13735000  0.38935000  0.07369000  1
  N  N167  1  0.23097000  0.59795000  0.93010000  1
  N  N168  1  0.49284000  0.09591000  0.08918000  1
  N  N169  1  0.49318000  0.41170000  0.40213000  1
  N  N170  1  0.50682000  0.58830000  0.59787000  1
  N  N171  1  0.50716000  0.90409000  0.91082000  1
  N  N172  1  0.76903000  0.40205000  0.06990000  1
  N  N173  1  0.86265000  0.61065000  0.92631000  1
  O  O174  1  0.00945000  0.54564000  0.10021000  1
  O  O175  1  0.02292000  0.63602000  0.81726000  1
  O  O176  1  0.03000000  0.02497000  0.40340000  1
  O  O177  1  0.09700000  0.77349000  0.89569000  1
  O  O178  1  0.10278000  0.66426000  0.03366000  1
  O  O179  1  0.19448000  0.41009000  0.48906000  1
  O  O180  1  0.21979000  0.77547000  0.59588000  1
  O  O181  1  0.23966000  0.91596000  0.34477000  1
  O  O182  1  0.28448000  0.72678000  0.49908000  1
  O  O183  1  0.37448000  0.37254000  0.53011000  1
  O  O184  1  0.62552000  0.62746000  0.46989000  1
  O  O185  1  0.71552000  0.27322000  0.50092000  1
  O  O186  1  0.76034000  0.08404000  0.65523000  1
  O  O187  1  0.78021000  0.22453000  0.40412000  1
  O  O188  1  0.80552000  0.58991000  0.51094000  1
  O  O189  1  0.89722000  0.33574000  0.96634000  1
  O  O190  1  0.90300000  0.22651000  0.10431000  1
  O  O191  1  0.97000000  0.97503000  0.59660000  1
  O  O192  1  0.97708000  0.36398000  0.18274000  1
  O  O193  1  0.99055000  0.45436000  0.89979000  1
