# generated using pymatgen
data_Cd6H21C21N31
_symmetry_space_group_name_H-M   'P 1'
_cell_length_a   13.12330000
_cell_length_b   13.12330000
_cell_length_c   13.87900000
_cell_angle_alpha   89.21440000
_cell_angle_beta   89.21440000
_cell_angle_gamma   82.75630000
_symmetry_Int_Tables_number   1
_chemical_formula_structural   Cd6H21C21N31
_chemical_formula_sum   'Cd12 H42 C42 N62'
_cell_volume   2370.78236648
_cell_formula_units_Z   2
loop_
 _symmetry_equiv_pos_site_id
 _symmetry_equiv_pos_as_xyz
  1  'x, y, z'
loop_
 _atom_site_type_symbol
 _atom_site_label
 _atom_site_symmetry_multiplicity
 _atom_site_fract_x
 _atom_site_fract_y
 _atom_site_fract_z
 _atom_site_occupancy
  Cd  Cd0  1  0.50000000  1.00000000  0.50000000  1
  Cd  Cd1  1  0.75473000  0.96569000  0.89963000  1
  Cd  Cd2  1  0.35136000  0.82580000  0.67747000  1
  Cd  Cd3  1  0.96569000  0.75473000  0.39963000  1
  Cd  Cd4  1  0.17420000  0.64864000  0.82253000  1
  Cd  Cd5  1  0.37546000  0.62454000  0.25000000  1
  Cd  Cd6  1  0.00000000  0.50000000  1.00000000  1
  Cd  Cd7  1  0.62454000  0.37546000  0.75000000  1
  Cd  Cd8  1  0.82580000  0.35136000  0.17747000  1
  Cd  Cd9  1  0.03431000  0.24527000  0.60037000  1
  Cd  Cd10  1  0.64864000  0.17420000  0.32253000  1
  Cd  Cd11  1  0.24527000  0.03431000  0.10037000  1
  H  H12  1  0.97800000  0.99760000  0.59140000  1
  H  H13  1  0.33490000  0.99610000  0.87130000  1
  H  H14  1  0.32000000  0.98680000  0.32650000  1
  H  H15  1  0.85190000  0.98390000  0.31630000  1
  H  H16  1  0.99760000  0.97800000  0.09140000  1
  H  H17  1  0.98390000  0.85190000  0.81630000  1
  H  H18  1  0.17260000  0.84660000  0.49350000  1
  H  H19  1  0.54570000  0.83830000  0.85210000  1
  H  H20  1  0.17000000  0.83000000  0.25000000  1
  H  H21  1  0.15340000  0.82740000  0.00650000  1
  H  H22  1  0.72200000  0.82040000  0.50490000  1
  H  H23  1  0.49980000  0.81920000  0.32130000  1
  H  H24  1  0.82040000  0.72200000  0.00490000  1
  H  H25  1  0.01320000  0.68000000  0.17350000  1
  H  H26  1  0.00390000  0.66510000  0.62870000  1
  H  H27  1  0.35040000  0.64980000  0.49390000  1
  H  H28  1  0.35020000  0.64960000  0.00610000  1
  H  H29  1  0.55060000  0.62500000  0.68350000  1
  H  H30  1  0.62500000  0.55060000  0.18350000  1
  H  H31  1  0.83830000  0.54570000  0.35210000  1
  H  H32  1  0.18080000  0.50020000  0.17870000  1
  H  H33  1  0.81920000  0.49980000  0.82130000  1
  H  H34  1  0.16170000  0.45430000  0.64790000  1
  H  H35  1  0.37500000  0.44940000  0.81650000  1
  H  H36  1  0.44940000  0.37500000  0.31650000  1
  H  H37  1  0.64980000  0.35040000  0.99390000  1
  H  H38  1  0.64960000  0.35020000  0.50610000  1
  H  H39  1  0.99610000  0.33490000  0.37130000  1
  H  H40  1  0.98680000  0.32000000  0.82650000  1
  H  H41  1  0.17960000  0.27800000  0.99510000  1
  H  H42  1  0.50020000  0.18080000  0.67870000  1
  H  H43  1  0.27800000  0.17960000  0.49510000  1
  H  H44  1  0.84660000  0.17260000  0.99350000  1
  H  H45  1  0.83000000  0.17000000  0.75000000  1
  H  H46  1  0.45430000  0.16170000  0.14790000  1
  H  H47  1  0.82740000  0.15340000  0.50650000  1
  H  H48  1  0.01610000  0.14810000  0.18370000  1
  H  H49  1  0.00240000  0.02200000  0.90860000  1
  H  H50  1  0.14810000  0.01610000  0.68370000  1
  H  H51  1  0.68000000  0.01320000  0.67350000  1
  H  H52  1  0.66510000  0.00390000  0.12870000  1
  H  H53  1  0.02200000  0.00240000  0.40860000  1
  C  C54  1  0.05610000  0.97710000  0.35130000  1
  C  C55  1  0.63370000  0.97050000  0.70070000  1
  C  C56  1  0.80400000  0.96060000  0.36070000  1
  C  C57  1  0.02290000  0.94390000  0.14870000  1
  C  C58  1  0.29380000  0.94340000  0.88700000  1
  C  C59  1  0.11520000  0.88480000  0.25000000  1
  C  C60  1  0.56180000  0.87660000  0.79660000  1
  C  C61  1  0.73490000  0.87370000  0.46100000  1
  C  C62  1  0.19690000  0.85290000  0.95920000  1
  C  C63  1  0.96060000  0.80400000  0.86070000  1
  C  C64  1  0.14710000  0.80310000  0.54080000  1
  C  C65  1  0.46730000  0.79370000  0.37660000  1
  C  C66  1  0.87370000  0.73490000  0.96100000  1
  C  C67  1  0.05660000  0.70620000  0.61300000  1
  C  C68  1  0.38710000  0.70270000  0.46950000  1
  C  C69  1  0.97050000  0.63370000  0.20070000  1
  C  C70  1  0.29730000  0.61290000  0.03050000  1
  C  C71  1  0.49310000  0.60070000  0.71430000  1
  C  C72  1  0.87660000  0.56180000  0.29660000  1
  C  C73  1  0.20630000  0.53270000  0.12340000  1
  C  C74  1  0.39930000  0.50690000  0.78570000  1
  C  C75  1  0.60070000  0.49310000  0.21430000  1
  C  C76  1  0.79370000  0.46730000  0.87660000  1
  C  C77  1  0.12340000  0.43820000  0.70340000  1
  C  C78  1  0.50690000  0.39930000  0.28570000  1
  C  C79  1  0.70270000  0.38710000  0.96950000  1
  C  C80  1  0.02950000  0.36630000  0.79930000  1
  C  C81  1  0.61290000  0.29730000  0.53050000  1
  C  C82  1  0.94340000  0.29380000  0.38700000  1
  C  C83  1  0.12630000  0.26510000  0.03900000  1
  C  C84  1  0.53270000  0.20630000  0.62340000  1
  C  C85  1  0.85290000  0.19690000  0.45920000  1
  C  C86  1  0.03940000  0.19600000  0.13930000  1
  C  C87  1  0.80310000  0.14710000  0.04080000  1
  C  C88  1  0.26510000  0.12630000  0.53900000  1
  C  C89  1  0.43820000  0.12340000  0.20340000  1
  C  C90  1  0.88480000  0.11520000  0.75000000  1
  C  C91  1  0.70620000  0.05660000  0.11300000  1
  C  C92  1  0.97710000  0.05610000  0.85130000  1
  C  C93  1  0.19600000  0.03940000  0.63930000  1
  C  C94  1  0.36630000  0.02950000  0.29930000  1
  C  C95  1  0.94390000  0.02290000  0.64870000  1
  N  N96  1  0.28690000  0.98810000  0.62120000  1
  N  N97  1  0.89010000  0.96670000  0.70350000  1
  N  N98  1  0.66800000  0.95440000  0.44450000  1
  N  N99  1  0.11920000  0.94740000  0.17950000  1
  N  N100  1  0.55390000  0.94490000  0.65430000  1
  N  N101  1  0.24020000  0.93960000  0.97050000  1
  N  N102  1  0.64340000  0.93020000  0.79030000  1
  N  N103  1  0.96670000  0.89010000  0.20350000  1
  N  N104  1  0.50710000  0.88350000  0.71690000  1
  N  N105  1  0.05260000  0.88080000  0.32050000  1
  N  N106  1  0.82250000  0.87230000  0.41110000  1
  N  N107  1  0.28350000  0.86650000  0.82970000  1
  N  N108  1  0.46440000  0.83700000  0.46200000  1
  N  N109  1  0.87230000  0.82250000  0.91110000  1
  N  N110  1  0.22020000  0.80700000  0.87710000  1
  N  N111  1  0.19300000  0.77980000  0.62290000  1
  N  N112  1  0.41260000  0.77740000  0.52240000  1
  N  N113  1  0.06040000  0.75980000  0.52950000  1
  N  N114  1  0.13350000  0.71650000  0.67030000  1
  N  N115  1  0.01190000  0.71310000  0.87880000  1
  N  N116  1  0.41840000  0.70860000  0.37650000  1
  N  N117  1  0.95440000  0.66800000  0.94450000  1
  N  N118  1  0.40300000  0.65800000  0.72640000  1
  N  N119  1  0.93020000  0.64340000  0.29030000  1
  N  N120  1  0.34200000  0.59700000  0.77360000  1
  N  N121  1  0.22260000  0.58740000  0.97760000  1
  N  N122  1  0.29140000  0.58160000  0.12350000  1
  N  N123  1  0.94490000  0.55390000  0.15430000  1
  N  N124  1  0.16300000  0.53560000  0.03800000  1
  N  N125  1  0.88350000  0.50710000  0.21690000  1
  N  N126  1  0.49450000  0.50550000  0.75000000  1
  N  N127  1  0.50550000  0.49450000  0.25000000  1
  N  N128  1  0.11650000  0.49290000  0.78310000  1
  N  N129  1  0.83700000  0.46440000  0.96200000  1
  N  N130  1  0.05510000  0.44610000  0.84570000  1
  N  N131  1  0.70860000  0.41840000  0.87650000  1
  N  N132  1  0.77740000  0.41260000  0.02240000  1
  N  N133  1  0.65800000  0.40300000  0.22640000  1
  N  N134  1  0.06980000  0.35660000  0.70970000  1
  N  N135  1  0.59700000  0.34200000  0.27360000  1
  N  N136  1  0.04560000  0.33200000  0.05550000  1
  N  N137  1  0.58160000  0.29140000  0.62350000  1
  N  N138  1  0.98810000  0.28690000  0.12120000  1
  N  N139  1  0.86650000  0.28350000  0.32970000  1
  N  N140  1  0.93960000  0.24020000  0.47050000  1
  N  N141  1  0.58740000  0.22260000  0.47760000  1
  N  N142  1  0.80700000  0.22020000  0.37710000  1
  N  N143  1  0.77980000  0.19300000  0.12290000  1
  N  N144  1  0.12770000  0.17750000  0.08890000  1
  N  N145  1  0.53560000  0.16300000  0.53800000  1
  N  N146  1  0.71650000  0.13350000  0.17030000  1
  N  N147  1  0.17750000  0.12770000  0.58890000  1
  N  N148  1  0.94740000  0.11920000  0.67950000  1
  N  N149  1  0.49290000  0.11650000  0.28310000  1
  N  N150  1  0.03330000  0.10990000  0.79650000  1
  N  N151  1  0.35660000  0.06980000  0.20970000  1
  N  N152  1  0.75980000  0.06040000  0.02950000  1
  N  N153  1  0.44610000  0.05510000  0.34570000  1
  N  N154  1  0.88080000  0.05260000  0.82050000  1
  N  N155  1  0.33200000  0.04560000  0.55550000  1
  N  N156  1  0.10990000  0.03330000  0.29650000  1
  N  N157  1  0.71310000  0.01190000  0.37880000  1
