# generated using pymatgen
data_La2H12(C4O5)3
_symmetry_space_group_name_H-M   'P 1'
_cell_length_a   9.50700000
_cell_length_b   9.50700000
_cell_length_c   17.44300000
_cell_angle_alpha   90.00000000
_cell_angle_beta   90.00000000
_cell_angle_gamma   120.00000000
_symmetry_Int_Tables_number   1
_chemical_formula_structural   La2H12(C4O5)3
_chemical_formula_sum   'La4 H24 C24 O30'
_cell_volume   1365.33366991
_cell_formula_units_Z   2
loop_
 _symmetry_equiv_pos_site_id
 _symmetry_equiv_pos_as_xyz
  1  'x, y, z'
loop_
 _atom_site_type_symbol
 _atom_site_label
 _atom_site_symmetry_multiplicity
 _atom_site_fract_x
 _atom_site_fract_y
 _atom_site_fract_z
 _atom_site_occupancy
  La  La0  1  0.00000000  0.00000000  0.00000000  1
  La  La1  1  0.00000000  0.00000000  0.50000000  1
  La  La2  1  0.66666667  0.33333333  0.25000000  1
  La  La3  1  0.33333333  0.66666667  0.75000000  1
  H  H4  1  0.97210000  0.40280000  0.41900000  1
  H  H5  1  0.97210000  0.40280000  0.08100000  1
  H  H6  1  0.83030000  0.32500000  0.47730000  1
  H  H7  1  0.83030000  0.32500000  0.02270000  1
  H  H8  1  0.67500000  0.50530000  0.47730000  1
  H  H9  1  0.67500000  0.50530000  0.02270000  1
  H  H10  1  0.59720000  0.56930000  0.41900000  1
  H  H11  1  0.59720000  0.56930000  0.08100000  1
  H  H12  1  0.56930000  0.59720000  0.91900000  1
  H  H13  1  0.56930000  0.59720000  0.58100000  1
  H  H14  1  0.50530000  0.67500000  0.97730000  1
  H  H15  1  0.50530000  0.67500000  0.52270000  1
  H  H16  1  0.49470000  0.16970000  0.47730000  1
  H  H17  1  0.49470000  0.16970000  0.02270000  1
  H  H18  1  0.43070000  0.02790000  0.41900000  1
  H  H19  1  0.43070000  0.02790000  0.08100000  1
  H  H20  1  0.40280000  0.97210000  0.91900000  1
  H  H21  1  0.40280000  0.97210000  0.58100000  1
  H  H22  1  0.32500000  0.83030000  0.97730000  1
  H  H23  1  0.32500000  0.83030000  0.52270000  1
  H  H24  1  0.16970000  0.49470000  0.97730000  1
  H  H25  1  0.16970000  0.49470000  0.52270000  1
  H  H26  1  0.02790000  0.43070000  0.91900000  1
  H  H27  1  0.02790000  0.43070000  0.58100000  1
  C  C28  1  0.90590000  0.30680000  0.44860000  1
  C  C29  1  0.90590000  0.30680000  0.05140000  1
  C  C30  1  0.83490000  0.64990000  0.39540000  1
  C  C31  1  0.83490000  0.64990000  0.10460000  1
  C  C32  1  0.81500000  0.16510000  0.39540000  1
  C  C33  1  0.81500000  0.16510000  0.10460000  1
  C  C34  1  0.69320000  0.59910000  0.44860000  1
  C  C35  1  0.69320000  0.59910000  0.05140000  1
  C  C36  1  0.64990000  0.83490000  0.89540000  1
  C  C37  1  0.64990000  0.83490000  0.60460000  1
  C  C38  1  0.59910000  0.69320000  0.94860000  1
  C  C39  1  0.59910000  0.69320000  0.55140000  1
  C  C40  1  0.40090000  0.09410000  0.44860000  1
  C  C41  1  0.40090000  0.09410000  0.05140000  1
  C  C42  1  0.35010000  0.18500000  0.39540000  1
  C  C43  1  0.35010000  0.18500000  0.10460000  1
  C  C44  1  0.30680000  0.90590000  0.94860000  1
  C  C45  1  0.30680000  0.90590000  0.55140000  1
  C  C46  1  0.18500000  0.35010000  0.89540000  1
  C  C47  1  0.18500000  0.35010000  0.60460000  1
  C  C48  1  0.16510000  0.81500000  0.89540000  1
  C  C49  1  0.16510000  0.81500000  0.60460000  1
  C  C50  1  0.09410000  0.40090000  0.94860000  1
  C  C51  1  0.09410000  0.40090000  0.55140000  1
  O  O52  1  0.00000000  0.27160000  1.00000000  1
  O  O53  1  0.00000000  0.27160000  0.50000000  1
  O  O54  1  0.95820000  0.78540000  0.40470000  1
  O  O55  1  0.95820000  0.78540000  0.09530000  1
  O  O56  1  0.82720000  0.04180000  0.40470000  1
  O  O57  1  0.82720000  0.04180000  0.09530000  1
  O  O58  1  0.82050000  0.55000000  0.34510000  1
  O  O59  1  0.82050000  0.55000000  0.15490000  1
  O  O60  1  0.78540000  0.95820000  0.90470000  1
  O  O61  1  0.78540000  0.95820000  0.59530000  1
  O  O62  1  0.72950000  0.17950000  0.34510000  1
  O  O63  1  0.72950000  0.17950000  0.15490000  1
  O  O64  1  0.72840000  0.72840000  1.00000000  1
  O  O65  1  0.72840000  0.72840000  0.50000000  1
  O  O66  1  0.55000000  0.82050000  0.84510000  1
  O  O67  1  0.55000000  0.82050000  0.65490000  1
  O  O68  1  0.45000000  0.27050000  0.34510000  1
  O  O69  1  0.45000000  0.27050000  0.15490000  1
  O  O70  1  0.27160000  0.00000000  1.00000000  1
  O  O71  1  0.27160000  0.00000000  0.50000000  1
  O  O72  1  0.27050000  0.45000000  0.84510000  1
  O  O73  1  0.27050000  0.45000000  0.65490000  1
  O  O74  1  0.21460000  0.17280000  0.40470000  1
  O  O75  1  0.21460000  0.17280000  0.09530000  1
  O  O76  1  0.17950000  0.72950000  0.84510000  1
  O  O77  1  0.17950000  0.72950000  0.65490000  1
  O  O78  1  0.17280000  0.21460000  0.90470000  1
  O  O79  1  0.17280000  0.21460000  0.59530000  1
  O  O80  1  0.04180000  0.82720000  0.90470000  1
  O  O81  1  0.04180000  0.82720000  0.59530000  1
