# generated using pymatgen
data_CuH18C18(NO)4
_symmetry_space_group_name_H-M   'P 1'
_cell_length_a   9.05210000
_cell_length_b   15.40100000
_cell_length_c   17.14100000
_cell_angle_alpha   90.00000000
_cell_angle_beta   90.00000000
_cell_angle_gamma   90.00000000
_symmetry_Int_Tables_number   1
_chemical_formula_structural   CuH18C18(NO)4
_chemical_formula_sum   'Cu4 H72 C72 N16 O16'
_cell_volume   2389.65067199
_cell_formula_units_Z   4
loop_
 _symmetry_equiv_pos_site_id
 _symmetry_equiv_pos_as_xyz
  1  'x, y, z'
loop_
 _atom_site_type_symbol
 _atom_site_label
 _atom_site_symmetry_multiplicity
 _atom_site_fract_x
 _atom_site_fract_y
 _atom_site_fract_z
 _atom_site_occupancy
  Cu  Cu0  1  0.07064000  0.22173000  0.28185000  1
  Cu  Cu1  1  0.07064000  0.72173000  0.21815000  1
  Cu  Cu2  1  0.57064000  0.27827000  0.78185000  1
  Cu  Cu3  1  0.57064000  0.77827000  0.71815000  1
  H  H4  1  0.03550000  0.32830000  0.93410000  1
  H  H5  1  0.03550000  0.82830000  0.56590000  1
  H  H6  1  0.07550000  0.03420000  0.81140000  1
  H  H7  1  0.07550000  0.53420000  0.68860000  1
  H  H8  1  0.07670000  0.01540000  0.64760000  1
  H  H9  1  0.07670000  0.51540000  0.85240000  1
  H  H10  1  0.13960000  0.20750000  0.61230000  1
  H  H11  1  0.13960000  0.70750000  0.88770000  1
  H  H12  1  0.14390000  0.38840000  0.73790000  1
  H  H13  1  0.14390000  0.88840000  0.76210000  1
  H  H14  1  0.15310000  0.01810000  0.38190000  1
  H  H15  1  0.15310000  0.51810000  0.11810000  1
  H  H16  1  0.21230000  0.38050000  0.82170000  1
  H  H17  1  0.21230000  0.88050000  0.67830000  1
  H  H18  1  0.21930000  0.02570000  0.69870000  1
  H  H19  1  0.21930000  0.52570000  0.80130000  1
  H  H20  1  0.23750000  0.06390000  0.50300000  1
  H  H21  1  0.23750000  0.56390000  0.99700000  1
  H  H22  1  0.26510000  0.19140000  0.83210000  1
  H  H23  1  0.26510000  0.69140000  0.66790000  1
  H  H24  1  0.28340000  0.22950000  0.43650000  1
  H  H25  1  0.28340000  0.72950000  0.06350000  1
  H  H26  1  0.30830000  0.27950000  0.07430000  1
  H  H27  1  0.30830000  0.77950000  0.42570000  1
  H  H28  1  0.35690000  0.13890000  0.22610000  1
  H  H29  1  0.35690000  0.63890000  0.27390000  1
  H  H30  1  0.37590000  0.47210000  0.92110000  1
  H  H31  1  0.37590000  0.97210000  0.57890000  1
  H  H32  1  0.39110000  0.26700000  0.62550000  1
  H  H33  1  0.39110000  0.76700000  0.87450000  1
  H  H34  1  0.43180000  0.48020000  0.26220000  1
  H  H35  1  0.43180000  0.98020000  0.23780000  1
  H  H36  1  0.44120000  0.34620000  0.21100000  1
  H  H37  1  0.44120000  0.84620000  0.28900000  1
  H  H38  1  0.47600000  0.33300000  0.29970000  1
  H  H39  1  0.47600000  0.83300000  0.20030000  1
  H  H40  1  0.53550000  0.17170000  0.43410000  1
  H  H41  1  0.53550000  0.67170000  0.06590000  1
  H  H42  1  0.57550000  0.46580000  0.31140000  1
  H  H43  1  0.57550000  0.96580000  0.18860000  1
  H  H44  1  0.57670000  0.48460000  0.14760000  1
  H  H45  1  0.57670000  0.98460000  0.35240000  1
  H  H46  1  0.63960000  0.29250000  0.11230000  1
  H  H47  1  0.63960000  0.79250000  0.38770000  1
  H  H48  1  0.64390000  0.11160000  0.23790000  1
  H  H49  1  0.64390000  0.61160000  0.26210000  1
  H  H50  1  0.65310000  0.48190000  0.88190000  1
  H  H51  1  0.65310000  0.98190000  0.61810000  1
  H  H52  1  0.71230000  0.11950000  0.32170000  1
  H  H53  1  0.71230000  0.61950000  0.17830000  1
  H  H54  1  0.71930000  0.47430000  0.19870000  1
  H  H55  1  0.71930000  0.97430000  0.30130000  1
  H  H56  1  0.73750000  0.43610000  0.00300000  1
  H  H57  1  0.73750000  0.93610000  0.49700000  1
  H  H58  1  0.76510000  0.30860000  0.33210000  1
  H  H59  1  0.76510000  0.80860000  0.16790000  1
  H  H60  1  0.78340000  0.27050000  0.93650000  1
  H  H61  1  0.78340000  0.77050000  0.56350000  1
  H  H62  1  0.80830000  0.22050000  0.57430000  1
  H  H63  1  0.80830000  0.72050000  0.92570000  1
  H  H64  1  0.85690000  0.36110000  0.72610000  1
  H  H65  1  0.85690000  0.86110000  0.77390000  1
  H  H66  1  0.87590000  0.02790000  0.42110000  1
  H  H67  1  0.87590000  0.52790000  0.07890000  1
  H  H68  1  0.89110000  0.23300000  0.12550000  1
  H  H69  1  0.89110000  0.73300000  0.37450000  1
  H  H70  1  0.93180000  0.01980000  0.76220000  1
  H  H71  1  0.93180000  0.51980000  0.73780000  1
  H  H72  1  0.94120000  0.15380000  0.71100000  1
  H  H73  1  0.94120000  0.65380000  0.78900000  1
  H  H74  1  0.97600000  0.16700000  0.79970000  1
  H  H75  1  0.97600000  0.66700000  0.70030000  1
  C  C76  1  0.01340000  0.14230000  0.75150000  1
  C  C77  1  0.01340000  0.64230000  0.74850000  1
  C  C78  1  0.02950000  0.04570000  0.76140000  1
  C  C79  1  0.02950000  0.54570000  0.73860000  1
  C  C80  1  0.12000000  0.00210000  0.69800000  1
  C  C81  1  0.12000000  0.50210000  0.80200000  1
  C  C82  1  0.12850000  0.40240000  0.79250000  1
  C  C83  1  0.12850000  0.90240000  0.70750000  1
  C  C84  1  0.15620000  0.36140000  0.18310000  1
  C  C85  1  0.15620000  0.86140000  0.31690000  1
  C  C86  1  0.19470000  0.21150000  0.65800000  1
  C  C87  1  0.19470000  0.71150000  0.84200000  1
  C  C88  1  0.20110000  0.47940000  0.08520000  1
  C  C89  1  0.20110000  0.97940000  0.41480000  1
  C  C90  1  0.21890000  0.39290000  0.10720000  1
  C  C91  1  0.21890000  0.89290000  0.39280000  1
  C  C92  1  0.25560000  0.00740000  0.48640000  1
  C  C93  1  0.25560000  0.50740000  0.01360000  1
  C  C94  1  0.26510000  0.20290000  0.77880000  1
  C  C95  1  0.26510000  0.70290000  0.72120000  1
  C  C96  1  0.29670000  0.33720000  0.05970000  1
  C  C97  1  0.29670000  0.83720000  0.44030000  1
  C  C98  1  0.32970000  0.20390000  0.39390000  1
  C  C99  1  0.32970000  0.70390000  0.10610000  1
  C  C100  1  0.33380000  0.24420000  0.66560000  1
  C  C101  1  0.33380000  0.74420000  0.83440000  1
  C  C102  1  0.33580000  0.45220000  0.96770000  1
  C  C103  1  0.33580000  0.95220000  0.53230000  1
  C  C104  1  0.35790000  0.36630000  0.99030000  1
  C  C105  1  0.35790000  0.86630000  0.50970000  1
  C  C106  1  0.36920000  0.15420000  0.27820000  1
  C  C107  1  0.36920000  0.65420000  0.22180000  1
  C  C108  1  0.44610000  0.30560000  0.93780000  1
  C  C109  1  0.44610000  0.80560000  0.56220000  1
  C  C110  1  0.46900000  0.17190000  0.39280000  1
  C  C111  1  0.46900000  0.67190000  0.10720000  1
  C  C112  1  0.51340000  0.35770000  0.25150000  1
  C  C113  1  0.51340000  0.85770000  0.24850000  1
  C  C114  1  0.52950000  0.45430000  0.26140000  1
  C  C115  1  0.52950000  0.95430000  0.23860000  1
  C  C116  1  0.62000000  0.49790000  0.19800000  1
  C  C117  1  0.62000000  0.99790000  0.30200000  1
  C  C118  1  0.62850000  0.09760000  0.29250000  1
  C  C119  1  0.62850000  0.59760000  0.20750000  1
  C  C120  1  0.65620000  0.13860000  0.68310000  1
  C  C121  1  0.65620000  0.63860000  0.81690000  1
  C  C122  1  0.69470000  0.28850000  0.15800000  1
  C  C123  1  0.69470000  0.78850000  0.34200000  1
  C  C124  1  0.70110000  0.02060000  0.58520000  1
  C  C125  1  0.70110000  0.52060000  0.91480000  1
  C  C126  1  0.71890000  0.10710000  0.60720000  1
  C  C127  1  0.71890000  0.60710000  0.89280000  1
  C  C128  1  0.75560000  0.49260000  0.98640000  1
  C  C129  1  0.75560000  0.99260000  0.51360000  1
  C  C130  1  0.76510000  0.29710000  0.27880000  1
  C  C131  1  0.76510000  0.79710000  0.22120000  1
  C  C132  1  0.79670000  0.16280000  0.55970000  1
  C  C133  1  0.79670000  0.66280000  0.94030000  1
  C  C134  1  0.82970000  0.29610000  0.89390000  1
  C  C135  1  0.82970000  0.79610000  0.60610000  1
  C  C136  1  0.83380000  0.25580000  0.16560000  1
  C  C137  1  0.83380000  0.75580000  0.33440000  1
  C  C138  1  0.83580000  0.04780000  0.46770000  1
  C  C139  1  0.83580000  0.54780000  0.03230000  1
  C  C140  1  0.85790000  0.13370000  0.49030000  1
  C  C141  1  0.85790000  0.63370000  0.00970000  1
  C  C142  1  0.86920000  0.34580000  0.77820000  1
  C  C143  1  0.86920000  0.84580000  0.72180000  1
  C  C144  1  0.94610000  0.19440000  0.43780000  1
  C  C145  1  0.94610000  0.69440000  0.06220000  1
  C  C146  1  0.96900000  0.32810000  0.89280000  1
  C  C147  1  0.96900000  0.82810000  0.60720000  1
  N  N148  1  0.15240000  0.18560000  0.73110000  1
  N  N149  1  0.15240000  0.68560000  0.76890000  1
  N  N150  1  0.26810000  0.19220000  0.32100000  1
  N  N151  1  0.26810000  0.69220000  0.17900000  1
  N  N152  1  0.37470000  0.23790000  0.74140000  1
  N  N153  1  0.37470000  0.73790000  0.75860000  1
  N  N154  1  0.49330000  0.14030000  0.31990000  1
  N  N155  1  0.49330000  0.64030000  0.18010000  1
  N  N156  1  0.65240000  0.31440000  0.23110000  1
  N  N157  1  0.65240000  0.81440000  0.26890000  1
  N  N158  1  0.76810000  0.30780000  0.82100000  1
  N  N159  1  0.76810000  0.80780000  0.67900000  1
  N  N160  1  0.87470000  0.26210000  0.24140000  1
  N  N161  1  0.87470000  0.76210000  0.25860000  1
  N  N162  1  0.99330000  0.35970000  0.81990000  1
  N  N163  1  0.99330000  0.85970000  0.68010000  1
  O  O164  1  0.10810000  0.41490000  0.23070000  1
  O  O165  1  0.10810000  0.91490000  0.26930000  1
  O  O166  1  0.16100000  0.28000000  0.19350000  1
  O  O167  1  0.16100000  0.78000000  0.30650000  1
  O  O168  1  0.47440000  0.33410000  0.87110000  1
  O  O169  1  0.47440000  0.83410000  0.62890000  1
  O  O170  1  0.48630000  0.23440000  0.96400000  1
  O  O171  1  0.48630000  0.73440000  0.53600000  1
  O  O172  1  0.60810000  0.08510000  0.73070000  1
  O  O173  1  0.60810000  0.58510000  0.76930000  1
  O  O174  1  0.66100000  0.22000000  0.69350000  1
  O  O175  1  0.66100000  0.72000000  0.80650000  1
  O  O176  1  0.97440000  0.16590000  0.37110000  1
  O  O177  1  0.97440000  0.66590000  0.12890000  1
  O  O178  1  0.98630000  0.26560000  0.46400000  1
  O  O179  1  0.98630000  0.76560000  0.03600000  1
