# generated using pymatgen
data_CdH18C27(N3O2)2
_symmetry_space_group_name_H-M   'P 1'
_cell_length_a   11.32800000
_cell_length_b   13.62400000
_cell_length_c   24.95100000
_cell_angle_alpha   90.00000000
_cell_angle_beta   90.00000000
_cell_angle_gamma   114.07300000
_symmetry_Int_Tables_number   1
_chemical_formula_structural   CdH18C27(N3O2)2
_chemical_formula_sum   'Cd4 H72 C108 N24 O16'
_cell_volume   3515.84089135
_cell_formula_units_Z   4
loop_
 _symmetry_equiv_pos_site_id
 _symmetry_equiv_pos_as_xyz
  1  'x, y, z'
loop_
 _atom_site_type_symbol
 _atom_site_label
 _atom_site_symmetry_multiplicity
 _atom_site_fract_x
 _atom_site_fract_y
 _atom_site_fract_z
 _atom_site_occupancy
  Cd  Cd0  1  0.14754000  0.32527000  0.34023000  1
  Cd  Cd1  1  0.35246000  0.17473000  0.84023000  1
  Cd  Cd2  1  0.64754000  0.82527000  0.15977000  1
  Cd  Cd3  1  0.85246000  0.67473000  0.65977000  1
  H  H4  1  0.00920000  0.06400000  0.37440000  1
  H  H5  1  0.03250000  0.81290000  0.46870000  1
  H  H6  1  0.04820000  0.15840000  0.22960000  1
  H  H7  1  0.06130000  0.88530000  0.34820000  1
  H  H8  1  0.06250000  0.74360000  0.55520000  1
  H  H9  1  0.07660000  0.17500000  0.72250000  1
  H  H10  1  0.10400000  0.06750000  0.56010000  1
  H  H11  1  0.10510000  0.95790000  0.91190000  1
  H  H12  1  0.11000000  0.58060000  0.79670000  1
  H  H13  1  0.12480000  0.33300000  0.17570000  1
  H  H14  1  0.13370000  0.62330000  0.34520000  1
  H  H15  1  0.13450000  0.12470000  0.06300000  1
  H  H16  1  0.14290000  0.00940000  0.75790000  1
  H  H17  1  0.16170000  0.52530000  0.17600000  1
  H  H18  1  0.16970000  0.78750000  0.38020000  1
  H  H19  1  0.18250000  0.79150000  0.69730000  1
  H  H20  1  0.19400000  0.17280000  0.95910000  1
  H  H21  1  0.20010000  0.47240000  0.83530000  1
  H  H22  1  0.29990000  0.02760000  0.33530000  1
  H  H23  1  0.30600000  0.32720000  0.45910000  1
  H  H24  1  0.31750000  0.70850000  0.19730000  1
  H  H25  1  0.33030000  0.71250000  0.88020000  1
  H  H26  1  0.33830000  0.97470000  0.67600000  1
  H  H27  1  0.35710000  0.49060000  0.25790000  1
  H  H28  1  0.36550000  0.37530000  0.56300000  1
  H  H29  1  0.36630000  0.87670000  0.84520000  1
  H  H30  1  0.37520000  0.16700000  0.67570000  1
  H  H31  1  0.39000000  0.91940000  0.29670000  1
  H  H32  1  0.39490000  0.54210000  0.41190000  1
  H  H33  1  0.39600000  0.43250000  0.06010000  1
  H  H34  1  0.42340000  0.32500000  0.22250000  1
  H  H35  1  0.43750000  0.75640000  0.05520000  1
  H  H36  1  0.43870000  0.61470000  0.84820000  1
  H  H37  1  0.45180000  0.34160000  0.72960000  1
  H  H38  1  0.46750000  0.68710000  0.96870000  1
  H  H39  1  0.49080000  0.43600000  0.87440000  1
  H  H40  1  0.50920000  0.56400000  0.12560000  1
  H  H41  1  0.53250000  0.31290000  0.03130000  1
  H  H42  1  0.54820000  0.65840000  0.27040000  1
  H  H43  1  0.56130000  0.38530000  0.15180000  1
  H  H44  1  0.56250000  0.24360000  0.94480000  1
  H  H45  1  0.57660000  0.67500000  0.77750000  1
  H  H46  1  0.60400000  0.56750000  0.93990000  1
  H  H47  1  0.60510000  0.45790000  0.58810000  1
  H  H48  1  0.61000000  0.08060000  0.70330000  1
  H  H49  1  0.62480000  0.83300000  0.32430000  1
  H  H50  1  0.63370000  0.12330000  0.15480000  1
  H  H51  1  0.63450000  0.62470000  0.43700000  1
  H  H52  1  0.64290000  0.50940000  0.74210000  1
  H  H53  1  0.66170000  0.02530000  0.32400000  1
  H  H54  1  0.66970000  0.28750000  0.11980000  1
  H  H55  1  0.68250000  0.29150000  0.80270000  1
  H  H56  1  0.69400000  0.67280000  0.54090000  1
  H  H57  1  0.70010000  0.97240000  0.66470000  1
  H  H58  1  0.79990000  0.52760000  0.16470000  1
  H  H59  1  0.80600000  0.82720000  0.04090000  1
  H  H60  1  0.81750000  0.20850000  0.30270000  1
  H  H61  1  0.83030000  0.21250000  0.61980000  1
  H  H62  1  0.83830000  0.47470000  0.82400000  1
  H  H63  1  0.85710000  0.99060000  0.24210000  1
  H  H64  1  0.86550000  0.87530000  0.93700000  1
  H  H65  1  0.86630000  0.37670000  0.65480000  1
  H  H66  1  0.87520000  0.66700000  0.82430000  1
  H  H67  1  0.89000000  0.41940000  0.20330000  1
  H  H68  1  0.89490000  0.04210000  0.08810000  1
  H  H69  1  0.89600000  0.93250000  0.43990000  1
  H  H70  1  0.92340000  0.82500000  0.27750000  1
  H  H71  1  0.93750000  0.25640000  0.44480000  1
  H  H72  1  0.93870000  0.11470000  0.65180000  1
  H  H73  1  0.95180000  0.84160000  0.77040000  1
  H  H74  1  0.96750000  0.18710000  0.53130000  1
  H  H75  1  0.99080000  0.93600000  0.62560000  1
  C  C76  1  0.00400000  0.62020000  0.28695000  1
  C  C77  1  0.00500000  0.88460000  0.79720000  1
  C  C78  1  0.01620000  0.26170000  0.45860000  1
  C  C79  1  0.02040000  0.48210000  0.73585000  1
  C  C80  1  0.02980000  0.44060000  0.28884000  1
  C  C81  1  0.03170000  0.22370000  0.50640000  1
  C  C82  1  0.03440000  0.21640000  0.70990000  1
  C  C83  1  0.04790000  0.81980000  0.33240000  1
  C  C84  1  0.05720000  0.31530000  0.73480000  1
  C  C85  1  0.05750000  0.92240000  0.64080000  1
  C  C86  1  0.09090000  0.66280000  0.33090000  1
  C  C87  1  0.09140000  0.95000000  0.87511000  1
  C  C88  1  0.09600000  0.51470000  0.78110000  1
  C  C89  1  0.11110000  0.97730000  0.79080000  1
  C  C90  1  0.11160000  0.76040000  0.35200000  1
  C  C91  1  0.11190000  0.21770000  0.12253000  1
  C  C92  1  0.13730000  0.35370000  0.78130000  1
  C  C93  1  0.15200000  0.44980000  0.80400000  1
  C  C94  1  0.16180000  0.31870000  0.14499000  1
  C  C95  1  0.16330000  0.84390000  0.68020000  1
  C  C96  1  0.16810000  0.19350000  0.07762000  1
  C  C97  1  0.17460000  0.12170000  0.57613000  1
  C  C98  1  0.20880000  0.29310000  0.80720000  1
  C  C99  1  0.21770000  0.30100000  0.46596000  1
  C  C100  1  0.22490000  0.22530000  0.55539000  1
  C  C101  1  0.23160000  0.10080000  0.62108000  1
  C  C102  1  0.24970000  0.55490000  0.16830000  1
  C  C103  1  0.25030000  0.94510000  0.66830000  1
  C  C104  1  0.26840000  0.39920000  0.12108000  1
  C  C105  1  0.27510000  0.27470000  0.05539000  1
  C  C106  1  0.28230000  0.19900000  0.96596000  1
  C  C107  1  0.29120000  0.20690000  0.30720000  1
  C  C108  1  0.32540000  0.37830000  0.07613000  1
  C  C109  1  0.33190000  0.30650000  0.57762000  1
  C  C110  1  0.33670000  0.65610000  0.18020000  1
  C  C111  1  0.33820000  0.18130000  0.64499000  1
  C  C112  1  0.34800000  0.05020000  0.30400000  1
  C  C113  1  0.36270000  0.14630000  0.28130000  1
  C  C114  1  0.38810000  0.28230000  0.62253000  1
  C  C115  1  0.38840000  0.73960000  0.85200000  1
  C  C116  1  0.38890000  0.52270000  0.29080000  1
  C  C117  1  0.40400000  0.98530000  0.28110000  1
  C  C118  1  0.40860000  0.55000000  0.37511000  1
  C  C119  1  0.40910000  0.83720000  0.83090000  1
  C  C120  1  0.44250000  0.57760000  0.14080000  1
  C  C121  1  0.44280000  0.18470000  0.23480000  1
  C  C122  1  0.45210000  0.68020000  0.83240000  1
  C  C123  1  0.46560000  0.28360000  0.20990000  1
  C  C124  1  0.46830000  0.27630000  0.00640000  1
  C  C125  1  0.47020000  0.05940000  0.78884000  1
  C  C126  1  0.47960000  0.01790000  0.23585000  1
  C  C127  1  0.48380000  0.23830000  0.95860000  1
  C  C128  1  0.49500000  0.61540000  0.29720000  1
  C  C129  1  0.49600000  0.87980000  0.78695000  1
  C  C130  1  0.50400000  0.12020000  0.21305000  1
  C  C131  1  0.50500000  0.38460000  0.70280000  1
  C  C132  1  0.51620000  0.76170000  0.04140000  1
  C  C133  1  0.52040000  0.98210000  0.76415000  1
  C  C134  1  0.52980000  0.94060000  0.21116000  1
  C  C135  1  0.53170000  0.72370000  0.99360000  1
  C  C136  1  0.53440000  0.71640000  0.79010000  1
  C  C137  1  0.54790000  0.31980000  0.16760000  1
  C  C138  1  0.55720000  0.81530000  0.76520000  1
  C  C139  1  0.55750000  0.42240000  0.85920000  1
  C  C140  1  0.59090000  0.16280000  0.16910000  1
  C  C141  1  0.59140000  0.45000000  0.62489000  1
  C  C142  1  0.59600000  0.01470000  0.71890000  1
  C  C143  1  0.61110000  0.47730000  0.70920000  1
  C  C144  1  0.61160000  0.26040000  0.14800000  1
  C  C145  1  0.61190000  0.71770000  0.37747000  1
  C  C146  1  0.63730000  0.85370000  0.71870000  1
  C  C147  1  0.65200000  0.94980000  0.69600000  1
  C  C148  1  0.66180000  0.81870000  0.35501000  1
  C  C149  1  0.66330000  0.34390000  0.81980000  1
  C  C150  1  0.66810000  0.69350000  0.42238000  1
  C  C151  1  0.67460000  0.62170000  0.92387000  1
  C  C152  1  0.70880000  0.79310000  0.69280000  1
  C  C153  1  0.71770000  0.80100000  0.03404000  1
  C  C154  1  0.72490000  0.72530000  0.94461000  1
  C  C155  1  0.73160000  0.60080000  0.87892000  1
  C  C156  1  0.74970000  0.05490000  0.33170000  1
  C  C157  1  0.75030000  0.44510000  0.83170000  1
  C  C158  1  0.76840000  0.89920000  0.37892000  1
  C  C159  1  0.77510000  0.77470000  0.44461000  1
  C  C160  1  0.78230000  0.69900000  0.53404000  1
  C  C161  1  0.79120000  0.70690000  0.19280000  1
  C  C162  1  0.82540000  0.87830000  0.42387000  1
  C  C163  1  0.83190000  0.80650000  0.92238000  1
  C  C164  1  0.83670000  0.15610000  0.31980000  1
  C  C165  1  0.83820000  0.68130000  0.85501000  1
  C  C166  1  0.84800000  0.55020000  0.19600000  1
  C  C167  1  0.86270000  0.64630000  0.21870000  1
  C  C168  1  0.88810000  0.78230000  0.87747000  1
  C  C169  1  0.88840000  0.23960000  0.64800000  1
  C  C170  1  0.88890000  0.02270000  0.20920000  1
  C  C171  1  0.90400000  0.48530000  0.21890000  1
  C  C172  1  0.90860000  0.05000000  0.12489000  1
  C  C173  1  0.90910000  0.33720000  0.66910000  1
  C  C174  1  0.94250000  0.07760000  0.35920000  1
  C  C175  1  0.94280000  0.68470000  0.26520000  1
  C  C176  1  0.95210000  0.18020000  0.66760000  1
  C  C177  1  0.96560000  0.78360000  0.29010000  1
  C  C178  1  0.96830000  0.77630000  0.49360000  1
  C  C179  1  0.97020000  0.55940000  0.71116000  1
  C  C180  1  0.97960000  0.51790000  0.26415000  1
  C  C181  1  0.98380000  0.73830000  0.54140000  1
  C  C182  1  0.99500000  0.11540000  0.20280000  1
  C  C183  1  0.99600000  0.37980000  0.71305000  1
  N  N184  1  0.00780000  0.13290000  0.14856000  1
  N  N185  1  0.04240000  0.83110000  0.66298000  1
  N  N186  1  0.13270000  0.30950000  0.43276000  1
  N  N187  1  0.16090000  0.24960000  0.51123000  1
  N  N188  1  0.16490000  0.01720000  0.83920000  1
  N  N189  1  0.18230000  0.99470000  0.64270000  1
  N  N190  1  0.31770000  0.50530000  0.14270000  1
  N  N191  1  0.33510000  0.48280000  0.33920000  1
  N  N192  1  0.33910000  0.25040000  0.01123000  1
  N  N193  1  0.36730000  0.19050000  0.93276000  1
  N  N194  1  0.45760000  0.66890000  0.16298000  1
  N  N195  1  0.49220000  0.36710000  0.64856000  1
  N  N196  1  0.50780000  0.63290000  0.35144000  1
  N  N197  1  0.54240000  0.33110000  0.83702000  1
  N  N198  1  0.63270000  0.80950000  0.06724000  1
  N  N199  1  0.66090000  0.74960000  0.98877000  1
  N  N200  1  0.66490000  0.51720000  0.66080000  1
  N  N201  1  0.68230000  0.49470000  0.85730000  1
  N  N202  1  0.81770000  0.00530000  0.35730000  1
  N  N203  1  0.83510000  0.98280000  0.16080000  1
  N  N204  1  0.83910000  0.75040000  0.48877000  1
  N  N205  1  0.86730000  0.69050000  0.56724000  1
  N  N206  1  0.95760000  0.16890000  0.33702000  1
  N  N207  1  0.99220000  0.86710000  0.85144000  1
  O  O208  1  0.02490000  0.43020000  0.33904000  1
  O  O209  1  0.07250000  0.38980000  0.25955000  1
  O  O210  1  0.22060000  0.29650000  0.85687000  1
  O  O211  1  0.24590000  0.25770000  0.27759000  1
  O  O212  1  0.25410000  0.24230000  0.77759000  1
  O  O213  1  0.27940000  0.20350000  0.35687000  1
  O  O214  1  0.42750000  0.11020000  0.75955000  1
  O  O215  1  0.47510000  0.06980000  0.83904000  1
  O  O216  1  0.52490000  0.93020000  0.16096000  1
  O  O217  1  0.57250000  0.88980000  0.24045000  1
  O  O218  1  0.72060000  0.79650000  0.64313000  1
  O  O219  1  0.74590000  0.75770000  0.22241000  1
  O  O220  1  0.75410000  0.74230000  0.72241000  1
  O  O221  1  0.77940000  0.70350000  0.14313000  1
  O  O222  1  0.92750000  0.61020000  0.74045000  1
  O  O223  1  0.97510000  0.56980000  0.66096000  1
