# generated using pymatgen
data_EuCd5H120(C11O3)16
_symmetry_space_group_name_H-M   'P 1'
_cell_length_a   15.97000000
_cell_length_b   18.59700000
_cell_length_c   28.43400000
_cell_angle_alpha   100.53600000
_cell_angle_beta   95.13000000
_cell_angle_gamma   109.61500000
_symmetry_Int_Tables_number   1
_chemical_formula_structural   EuCd5H120(C11O3)16
_chemical_formula_sum   'Eu1 Cd5 H120 C176 O48'
_cell_volume   7716.18641041
_cell_formula_units_Z   1
loop_
 _symmetry_equiv_pos_site_id
 _symmetry_equiv_pos_as_xyz
  1  'x, y, z'
loop_
 _atom_site_type_symbol
 _atom_site_label
 _atom_site_symmetry_multiplicity
 _atom_site_fract_x
 _atom_site_fract_y
 _atom_site_fract_z
 _atom_site_occupancy
  Eu  Eu0  1  0.80667000  0.77463000  0.76827000  1
  Cd  Cd1  1  0.04404000  0.34534000  0.26525000  1
  Cd  Cd2  1  0.19333000  0.22537000  0.23173000  1
  Cd  Cd3  1  0.38215000  0.14410000  0.24088000  1
  Cd  Cd4  1  0.61785000  0.85590000  0.75912000  1
  Cd  Cd5  1  0.95596000  0.65466000  0.73475000  1
  H  H6  1  0.00640000  0.13280000  0.70920000  1
  H  H7  1  0.00920000  0.08140000  0.35990000  1
  H  H8  1  0.01870000  0.11580000  0.56160000  1
  H  H9  1  0.02990000  0.96630000  0.76140000  1
  H  H10  1  0.03230000  0.92540000  0.40040000  1
  H  H11  1  0.04110000  0.84720000  0.40900000  1
  H  H12  1  0.08170000  0.29380000  0.83270000  1
  H  H13  1  0.09860000  0.55210000  0.85490000  1
  H  H14  1  0.10160000  0.35910000  0.42450000  1
  H  H15  1  0.12120000  0.92340000  0.26050000  1
  H  H16  1  0.12590000  0.08860000  0.79950000  1
  H  H17  1  0.13850000  0.13650000  0.32830000  1
  H  H18  1  0.14230000  0.33820000  0.79900000  1
  H  H19  1  0.14700000  0.98220000  0.67970000  1
  H  H20  1  0.15130000  0.26120000  0.80990000  1
  H  H21  1  0.15470000  0.36820000  0.50640000  1
  H  H22  1  0.18550000  0.07780000  0.47990000  1
  H  H23  1  0.19040000  0.55010000  0.72790000  1
  H  H24  1  0.19590000  0.49450000  0.87930000  1
  H  H25  1  0.20250000  0.87750000  0.81930000  1
  H  H26  1  0.21070000  0.27250000  0.71080000  1
  H  H27  1  0.21730000  0.07450000  0.53300000  1
  H  H28  1  0.25600000  0.25720000  0.10180000  1
  H  H29  1  0.25750000  0.27730000  0.02370000  1
  H  H30  1  0.25800000  0.36270000  0.71520000  1
  H  H31  1  0.26380000  0.25290000  0.38390000  1
  H  H32  1  0.27500000  0.09710000  0.92860000  1
  H  H33  1  0.27590000  0.14070000  0.50980000  1
  H  H34  1  0.27690000  0.00450000  0.73720000  1
  H  H35  1  0.28230000  0.35390000  0.17230000  1
  H  H36  1  0.28410000  0.38510000  0.95900000  1
  H  H37  1  0.28920000  0.00250000  0.86180000  1
  H  H38  1  0.29020000  0.49730000  0.75470000  1
  H  H39  1  0.29270000  0.32170000  0.75210000  1
  H  H40  1  0.29510000  0.24110000  0.46100000  1
  H  H41  1  0.30440000  0.56650000  0.24480000  1
  H  H42  1  0.30480000  0.50700000  0.64260000  1
  H  H43  1  0.31330000  0.41210000  0.56470000  1
  H  H44  1  0.31830000  0.18780000  0.74460000  1
  H  H45  1  0.33830000  0.14020000  0.78150000  1
  H  H46  1  0.34760000  0.42470000  0.00910000  1
  H  H47  1  0.36820000  0.00170000  0.61000000  1
  H  H48  1  0.37520000  0.62140000  0.09760000  1
  H  H49  1  0.37530000  0.94820000  0.76140000  1
  H  H50  1  0.37860000  0.44990000  0.96190000  1
  H  H51  1  0.39400000  0.23000000  0.79000000  1
  H  H52  1  0.40410000  0.12610000  0.07990000  1
  H  H53  1  0.40910000  0.63030000  0.68540000  1
  H  H54  1  0.41100000  0.14530000  0.00060000  1
  H  H55  1  0.41620000  0.46680000  0.27970000  1
  H  H56  1  0.41780000  0.40840000  0.14620000  1
  H  H57  1  0.41840000  0.55700000  0.08790000  1
  H  H58  1  0.42150000  0.52470000  0.81270000  1
  H  H59  1  0.42970000  0.23160000  0.68290000  1
  H  H60  1  0.43670000  0.62210000  0.21340000  1
  H  H61  1  0.43800000  0.15070000  0.68550000  1
  H  H62  1  0.44900000  0.62930000  0.06400000  1
  H  H63  1  0.46590000  0.94470000  0.63520000  1
  H  H64  1  0.48430000  0.41110000  0.68200000  1
  H  H65  1  0.49300000  0.20110000  0.65240000  1
  H  H66  1  0.50700000  0.79890000  0.34760000  1
  H  H67  1  0.51570000  0.58890000  0.31800000  1
  H  H68  1  0.53410000  0.05530000  0.36480000  1
  H  H69  1  0.55100000  0.37070000  0.93600000  1
  H  H70  1  0.56200000  0.84930000  0.31450000  1
  H  H71  1  0.56330000  0.37790000  0.78660000  1
  H  H72  1  0.57030000  0.76840000  0.31710000  1
  H  H73  1  0.57850000  0.47530000  0.18730000  1
  H  H74  1  0.58160000  0.44300000  0.91210000  1
  H  H75  1  0.58220000  0.59160000  0.85380000  1
  H  H76  1  0.58380000  0.53320000  0.72030000  1
  H  H77  1  0.58900000  0.85470000  0.99940000  1
  H  H78  1  0.59090000  0.36970000  0.31460000  1
  H  H79  1  0.59590000  0.87390000  0.92010000  1
  H  H80  1  0.60600000  0.77000000  0.21000000  1
  H  H81  1  0.62140000  0.55010000  0.03810000  1
  H  H82  1  0.62470000  0.05180000  0.23860000  1
  H  H83  1  0.62480000  0.37860000  0.90240000  1
  H  H84  1  0.63180000  0.99830000  0.39000000  1
  H  H85  1  0.65240000  0.57530000  0.99090000  1
  H  H86  1  0.66170000  0.85980000  0.21850000  1
  H  H87  1  0.68170000  0.81220000  0.25540000  1
  H  H88  1  0.68670000  0.58790000  0.43530000  1
  H  H89  1  0.69520000  0.49300000  0.35740000  1
  H  H90  1  0.69560000  0.43350000  0.75520000  1
  H  H91  1  0.70490000  0.75890000  0.53900000  1
  H  H92  1  0.70730000  0.67830000  0.24790000  1
  H  H93  1  0.70980000  0.50270000  0.24530000  1
  H  H94  1  0.71080000  0.99750000  0.13820000  1
  H  H95  1  0.71590000  0.61490000  0.04100000  1
  H  H96  1  0.71770000  0.64610000  0.82770000  1
  H  H97  1  0.72310000  0.99550000  0.26280000  1
  H  H98  1  0.72410000  0.85930000  0.49020000  1
  H  H99  1  0.72500000  0.90290000  0.07140000  1
  H  H100  1  0.73620000  0.74710000  0.61610000  1
  H  H101  1  0.74200000  0.63730000  0.28480000  1
  H  H102  1  0.74250000  0.72270000  0.97630000  1
  H  H103  1  0.74400000  0.74280000  0.89820000  1
  H  H104  1  0.78270000  0.92550000  0.46700000  1
  H  H105  1  0.78930000  0.72750000  0.28920000  1
  H  H106  1  0.79750000  0.12250000  0.18070000  1
  H  H107  1  0.80410000  0.50550000  0.12070000  1
  H  H108  1  0.80960000  0.44990000  0.27210000  1
  H  H109  1  0.81450000  0.92220000  0.52010000  1
  H  H110  1  0.84530000  0.63180000  0.49360000  1
  H  H111  1  0.84870000  0.73880000  0.19010000  1
  H  H112  1  0.85300000  0.01780000  0.32030000  1
  H  H113  1  0.85770000  0.66180000  0.20100000  1
  H  H114  1  0.86150000  0.86350000  0.67170000  1
  H  H115  1  0.87410000  0.91140000  0.20050000  1
  H  H116  1  0.87880000  0.07660000  0.73950000  1
  H  H117  1  0.89840000  0.64090000  0.57550000  1
  H  H118  1  0.90140000  0.44790000  0.14510000  1
  H  H119  1  0.91830000  0.70620000  0.16730000  1
  H  H120  1  0.95890000  0.15280000  0.59100000  1
  H  H121  1  0.96770000  0.07460000  0.59960000  1
  H  H122  1  0.97010000  0.03370000  0.23860000  1
  H  H123  1  0.98130000  0.88420000  0.43840000  1
  H  H124  1  0.99080000  0.91860000  0.64010000  1
  H  H125  1  0.99360000  0.86720000  0.29080000  1
  C  C126  1  0.00120000  0.87580000  0.40760000  1
  C  C127  1  0.01410000  0.02960000  0.67350000  1
  C  C128  1  0.02160000  0.92150000  0.29760000  1
  C  C129  1  0.03070000  0.04960000  0.33890000  1
  C  C130  1  0.03720000  0.82620000  0.76820000  1
  C  C131  1  0.06570000  0.59050000  0.77120000  1
  C  C132  1  0.08190000  0.97270000  0.78190000  1
  C  C133  1  0.09770000  0.95530000  0.27990000  1
  C  C134  1  0.10190000  0.90780000  0.78870000  1
  C  C135  1  0.10530000  0.06240000  0.65860000  1
  C  C136  1  0.10840000  0.08250000  0.32030000  1
  C  C137  1  0.13070000  0.55380000  0.78830000  1
  C  C138  1  0.13450000  0.12770000  0.63810000  1
  C  C139  1  0.13540000  0.53910000  0.83390000  1
  C  C140  1  0.13870000  0.04540000  0.80520000  1
  C  C141  1  0.14010000  0.30790000  0.82310000  1
  C  C142  1  0.14130000  0.03530000  0.28980000  1
  C  C143  1  0.14280000  0.33570000  0.43170000  1
  C  C144  1  0.14870000  0.30580000  0.34440000  1
  C  C145  1  0.16590000  0.02640000  0.66690000  1
  C  C146  1  0.17090000  0.33820000  0.48150000  1
  C  C147  1  0.17360000  0.30090000  0.39530000  1
  C  C148  1  0.18410000  0.91940000  0.81710000  1
  C  C149  1  0.19080000  0.53840000  0.75830000  1
  C  C150  1  0.19420000  0.50530000  0.84860000  1
  C  C151  1  0.20010000  0.41560000  0.23490000  1
  C  C152  1  0.21410000  0.05730000  0.83680000  1
  C  C153  1  0.21600000  0.10860000  0.51160000  1
  C  C154  1  0.21920000  0.15580000  0.62770000  1
  C  C155  1  0.22130000  0.29600000  0.49110000  1
  C  C156  1  0.22230000  0.22600000  0.56010000  1
  C  C157  1  0.22550000  0.07250000  0.26920000  1
  C  C158  1  0.23450000  0.27100000  0.40760000  1
  C  C159  1  0.23650000  0.99440000  0.84140000  1
  C  C160  1  0.24660000  0.29510000  0.54290000  1
  C  C161  1  0.24920000  0.22800000  0.60810000  1
  C  C162  1  0.24950000  0.50640000  0.77430000  1
  C  C163  1  0.25070000  0.48690000  0.81870000  1
  C  C164  1  0.25380000  0.05220000  0.65720000  1
  C  C165  1  0.25540000  0.26620000  0.45440000  1
  C  C166  1  0.26700000  0.13780000  0.86900000  1
  C  C167  1  0.26730000  0.31560000  0.71900000  1
  C  C168  1  0.27960000  0.11800000  0.63660000  1
  C  C169  1  0.28230000  0.45360000  0.21250000  1
  C  C170  1  0.28690000  0.14310000  0.91760000  1
  C  C171  1  0.28710000  0.24640000  0.03430000  1
  C  C172  1  0.28740000  0.23460000  0.08150000  1
  C  C173  1  0.28860000  0.20730000  0.85280000  1
  C  C174  1  0.29330000  0.38590000  0.85420000  1
  C  C175  1  0.29840000  0.36600000  0.57570000  1
  C  C176  1  0.30260000  0.29940000  0.63890000  1
  C  C177  1  0.31430000  0.40750000  0.18220000  1
  C  C178  1  0.31500000  0.01280000  0.67100000  1
  C  C179  1  0.31570000  0.99380000  0.71680000  1
  C  C180  1  0.31690000  0.45170000  0.83400000  1
  C  C181  1  0.32410000  0.21420000  0.95120000  1
  C  C182  1  0.32710000  0.53470000  0.22470000  1
  C  C183  1  0.32800000  0.27920000  0.88610000  1
  C  C184  1  0.32830000  0.37030000  0.62370000  1
  C  C185  1  0.32960000  0.17750000  0.14790000  1
  C  C186  1  0.33130000  0.19180000  0.09870000  1
  C  C187  1  0.33210000  0.21110000  0.00360000  1
  C  C188  1  0.33580000  0.18990000  0.77810000  1
  C  C189  1  0.34250000  0.28170000  0.93520000  1
  C  C190  1  0.34560000  0.40670000  0.97500000  1
  C  C191  1  0.35540000  0.35140000  0.86620000  1
  C  C192  1  0.36150000  0.51170000  0.65730000  1
  C  C193  1  0.37020000  0.99200000  0.64090000  1
  C  C194  1  0.37400000  0.95940000  0.73080000  1
  C  C195  1  0.37540000  0.15710000  0.06860000  1
  C  C196  1  0.37860000  0.16730000  0.02040000  1
  C  C197  1  0.38700000  0.44450000  0.65480000  1
  C  C198  1  0.39500000  0.44070000  0.16580000  1
  C  C199  1  0.40390000  0.48030000  0.82540000  1
  C  C200  1  0.40720000  0.56810000  0.20640000  1
  C  C201  1  0.42510000  0.58620000  0.68280000  1
  C  C202  1  0.42570000  0.32510000  0.27040000  1
  C  C203  1  0.42820000  0.95720000  0.65570000  1
  C  C204  1  0.42950000  0.61200000  0.09240000  1
  C  C205  1  0.43060000  0.94070000  0.70150000  1
  C  C206  1  0.43720000  0.18590000  0.66480000  1
  C  C207  1  0.44120000  0.51950000  0.17790000  1
  C  C208  1  0.44250000  0.38360000  0.85660000  1
  C  C209  1  0.46730000  0.44610000  0.83490000  1
  C  C210  1  0.46880000  0.45470000  0.68040000  1
  C  C211  1  0.47140000  0.47150000  0.29620000  1
  C  C212  1  0.49010000  0.40600000  0.29630000  1
  C  C213  1  0.49760000  0.90540000  0.71930000  1
  C  C214  1  0.50240000  0.09460000  0.28070000  1
  C  C215  1  0.50990000  0.59400000  0.70370000  1
  C  C216  1  0.52860000  0.52850000  0.70380000  1
  C  C217  1  0.53120000  0.54530000  0.31960000  1
  C  C218  1  0.53270000  0.55390000  0.16510000  1
  C  C219  1  0.55750000  0.61640000  0.14340000  1
  C  C220  1  0.55880000  0.48050000  0.82210000  1
  C  C221  1  0.56280000  0.81410000  0.33520000  1
  C  C222  1  0.56940000  0.05930000  0.29850000  1
  C  C223  1  0.57050000  0.38800000  0.90760000  1
  C  C224  1  0.57180000  0.04280000  0.34430000  1
  C  C225  1  0.57430000  0.67490000  0.72960000  1
  C  C226  1  0.57490000  0.41380000  0.31720000  1
  C  C227  1  0.59280000  0.43190000  0.79360000  1
  C  C228  1  0.59610000  0.51970000  0.17460000  1
  C  C229  1  0.60500000  0.55930000  0.83420000  1
  C  C230  1  0.61300000  0.55550000  0.34520000  1
  C  C231  1  0.62140000  0.83270000  0.97960000  1
  C  C232  1  0.62460000  0.84290000  0.93140000  1
  C  C233  1  0.62600000  0.04060000  0.26920000  1
  C  C234  1  0.62980000  0.00800000  0.35910000  1
  C  C235  1  0.63850000  0.48830000  0.34270000  1
  C  C236  1  0.64460000  0.64860000  0.13380000  1
  C  C237  1  0.65440000  0.59330000  0.02500000  1
  C  C238  1  0.65750000  0.71830000  0.06480000  1
  C  C239  1  0.66420000  0.81010000  0.22190000  1
  C  C240  1  0.66790000  0.78890000  0.99640000  1
  C  C241  1  0.66870000  0.80820000  0.90130000  1
  C  C242  1  0.67040000  0.82250000  0.85210000  1
  C  C243  1  0.67170000  0.62970000  0.37630000  1
  C  C244  1  0.67200000  0.72080000  0.11390000  1
  C  C245  1  0.67290000  0.46530000  0.77530000  1
  C  C246  1  0.67590000  0.78580000  0.04880000  1
  C  C247  1  0.68310000  0.54830000  0.16600000  1
  C  C248  1  0.68430000  0.00620000  0.28320000  1
  C  C249  1  0.68500000  0.98720000  0.32900000  1
  C  C250  1  0.68570000  0.59250000  0.81780000  1
  C  C251  1  0.69740000  0.70060000  0.36110000  1
  C  C252  1  0.70160000  0.63400000  0.42430000  1
  C  C253  1  0.70670000  0.61410000  0.14580000  1
  C  C254  1  0.71140000  0.79270000  0.14720000  1
  C  C255  1  0.71260000  0.76540000  0.91850000  1
  C  C256  1  0.71290000  0.75360000  0.96570000  1
  C  C257  1  0.71310000  0.85690000  0.08240000  1
  C  C258  1  0.71770000  0.54640000  0.78750000  1
  C  C259  1  0.72040000  0.88200000  0.36340000  1
  C  C260  1  0.73270000  0.68440000  0.28100000  1
  C  C261  1  0.73300000  0.86220000  0.13100000  1
  C  C262  1  0.74460000  0.73380000  0.54560000  1
  C  C263  1  0.74620000  0.94780000  0.34280000  1
  C  C264  1  0.74930000  0.51310000  0.18130000  1
  C  C265  1  0.75050000  0.49360000  0.22570000  1
  C  C266  1  0.75080000  0.77200000  0.39190000  1
  C  C267  1  0.75340000  0.70490000  0.45710000  1
  C  C268  1  0.76350000  0.00560000  0.15860000  1
  C  C269  1  0.76550000  0.72900000  0.59240000  1
  C  C270  1  0.77450000  0.92750000  0.73080000  1
  C  C271  1  0.77770000  0.77400000  0.43990000  1
  C  C272  1  0.77870000  0.70400000  0.50890000  1
  C  C273  1  0.78080000  0.84420000  0.37230000  1
  C  C274  1  0.78400000  0.89140000  0.48840000  1
  C  C275  1  0.78590000  0.94270000  0.16320000  1
  C  C276  1  0.79990000  0.58440000  0.76510000  1
  C  C277  1  0.80580000  0.49470000  0.15140000  1
  C  C278  1  0.80920000  0.46160000  0.24170000  1
  C  C279  1  0.81590000  0.08060000  0.18290000  1
  C  C280  1  0.82640000  0.69910000  0.60470000  1
  C  C281  1  0.82910000  0.66180000  0.51850000  1
  C  C282  1  0.83410000  0.97360000  0.33310000  1
  C  C283  1  0.85130000  0.69420000  0.65560000  1
  C  C284  1  0.85720000  0.66430000  0.56830000  1
  C  C285  1  0.85870000  0.96470000  0.71020000  1
  C  C286  1  0.85990000  0.69210000  0.17690000  1
  C  C287  1  0.86130000  0.95460000  0.19480000  1
  C  C288  1  0.86460000  0.46090000  0.16610000  1
  C  C289  1  0.86550000  0.87230000  0.36190000  1
  C  C290  1  0.86930000  0.44620000  0.21170000  1
  C  C291  1  0.89160000  0.91750000  0.67970000  1
  C  C292  1  0.89470000  0.93760000  0.34140000  1
  C  C293  1  0.89810000  0.09220000  0.21130000  1
  C  C294  1  0.90230000  0.04470000  0.72010000  1
  C  C295  1  0.91810000  0.02730000  0.21810000  1
  C  C296  1  0.93430000  0.40950000  0.22880000  1
  C  C297  1  0.96280000  0.17380000  0.23180000  1
  C  C298  1  0.96930000  0.95040000  0.66110000  1
  C  C299  1  0.97840000  0.07850000  0.70240000  1
  C  C300  1  0.98590000  0.97040000  0.32650000  1
  C  C301  1  0.99880000  0.12420000  0.59240000  1
  O  O302  1  0.02440000  0.61620000  0.80090000  1
  O  O303  1  0.04580000  0.18780000  0.24500000  1
  O  O304  1  0.05700000  0.59380000  0.72740000  1
  O  O305  1  0.06610000  0.77060000  0.76590000  1
  O  O306  1  0.07850000  0.17010000  0.63100000  1
  O  O307  1  0.09020000  0.33680000  0.33780000  1
  O  O308  1  0.16580000  0.34170000  0.22510000  1
  O  O309  1  0.16840000  0.15690000  0.52960000  1
  O  O310  1  0.16910000  0.45750000  0.26010000  1
  O  O311  1  0.18720000  0.28000000  0.31360000  1
  O  O312  1  0.20690000  0.35300000  0.86410000  1
  O  O313  1  0.25170000  0.14590000  0.27270000  1
  O  O314  1  0.26420000  0.03040000  0.24910000  1
  O  O315  1  0.27250000  0.20690000  0.80490000  1
  O  O316  1  0.28920000  0.21190000  0.17540000  1
  O  O317  1  0.32920000  0.29990000  0.68690000  1
  O  O318  1  0.34200000  0.31720000  0.26510000  1
  O  O319  1  0.36370000  0.14730000  0.62510000  1
  O  O320  1  0.36820000  0.13470000  0.16150000  1
  O  O321  1  0.38240000  0.35180000  0.96810000  1
  O  O322  1  0.45390000  0.27350000  0.26700000  1
  O  O323  1  0.45980000  0.11910000  0.30970000  1
  O  O324  1  0.49410000  0.09650000  0.23690000  1
  O  O325  1  0.49960000  0.65520000  0.13450000  1
  O  O326  1  0.50040000  0.34480000  0.86550000  1
  O  O327  1  0.50590000  0.90350000  0.76310000  1
  O  O328  1  0.54020000  0.88090000  0.69030000  1
  O  O329  1  0.54610000  0.72650000  0.73300000  1
  O  O330  1  0.61760000  0.64820000  0.03190000  1
  O  O331  1  0.63180000  0.86530000  0.83850000  1
  O  O332  1  0.63630000  0.85270000  0.37490000  1
  O  O333  1  0.65800000  0.68280000  0.73490000  1
  O  O334  1  0.67080000  0.70010000  0.31310000  1
  O  O335  1  0.71080000  0.78810000  0.82460000  1
  O  O336  1  0.72750000  0.79310000  0.19510000  1
  O  O337  1  0.73580000  0.96960000  0.75090000  1
  O  O338  1  0.74830000  0.85410000  0.72730000  1
  O  O339  1  0.79310000  0.64700000  0.13590000  1
  O  O340  1  0.81280000  0.72000000  0.68640000  1
  O  O341  1  0.83090000  0.54250000  0.73990000  1
  O  O342  1  0.83160000  0.84310000  0.47040000  1
  O  O343  1  0.83420000  0.65830000  0.77490000  1
  O  O344  1  0.90980000  0.66320000  0.66220000  1
  O  O345  1  0.92150000  0.82990000  0.36900000  1
  O  O346  1  0.93390000  0.22940000  0.23410000  1
  O  O347  1  0.94300000  0.40620000  0.27260000  1
  O  O348  1  0.95420000  0.81220000  0.75500000  1
  O  O349  1  0.97560000  0.38380000  0.19910000  1
