# generated using pymatgen
data_PrH8C13O5
_symmetry_space_group_name_H-M   'P 1'
_cell_length_a   19.86900000
_cell_length_b   19.86900000
_cell_length_c   27.47000000
_cell_angle_alpha   90.00000000
_cell_angle_beta   90.00000000
_cell_angle_gamma   120.00000000
_symmetry_Int_Tables_number   1
_chemical_formula_structural   PrH8C13O5
_chemical_formula_sum   'Pr12 H96 C156 O60'
_cell_volume   9391.63727064
_cell_formula_units_Z   12
loop_
 _symmetry_equiv_pos_site_id
 _symmetry_equiv_pos_as_xyz
  1  'x, y, z'
loop_
 _atom_site_type_symbol
 _atom_site_label
 _atom_site_symmetry_multiplicity
 _atom_site_fract_x
 _atom_site_fract_y
 _atom_site_fract_z
 _atom_site_occupancy
  Pr  Pr0  1  0.95741000  0.47247000  0.42978000  1
  Pr  Pr1  1  0.95741000  0.47247000  0.07022000  1
  Pr  Pr2  1  0.52753000  0.48494000  0.42978000  1
  Pr  Pr3  1  0.52753000  0.48494000  0.07022000  1
  Pr  Pr4  1  0.51506000  0.04259000  0.42978000  1
  Pr  Pr5  1  0.51506000  0.04259000  0.07022000  1
  Pr  Pr6  1  0.48494000  0.95741000  0.92978000  1
  Pr  Pr7  1  0.48494000  0.95741000  0.57022000  1
  Pr  Pr8  1  0.47247000  0.51506000  0.92978000  1
  Pr  Pr9  1  0.47247000  0.51506000  0.57022000  1
  Pr  Pr10  1  0.04259000  0.52753000  0.92978000  1
  Pr  Pr11  1  0.04259000  0.52753000  0.57022000  1
  H  H12  1  0.96870000  0.72930000  0.86560000  1
  H  H13  1  0.96870000  0.72930000  0.63440000  1
  H  H14  1  0.96680000  0.81400000  0.86760000  1
  H  H15  1  0.96680000  0.81400000  0.63240000  1
  H  H16  1  0.96240000  0.10880000  0.34810000  1
  H  H17  1  0.96240000  0.10880000  0.15190000  1
  H  H18  1  0.95400000  0.88090000  0.84810000  1
  H  H19  1  0.95400000  0.88090000  0.65190000  1
  H  H20  1  0.94120000  0.65360000  0.83420000  1
  H  H21  1  0.94120000  0.65360000  0.66580000  1
  H  H22  1  0.92690000  0.04600000  0.84810000  1
  H  H23  1  0.92690000  0.04600000  0.65190000  1
  H  H24  1  0.92360000  0.61360000  0.91460000  1
  H  H25  1  0.92360000  0.61360000  0.58540000  1
  H  H26  1  0.89120000  0.85360000  0.34810000  1
  H  H27  1  0.89120000  0.85360000  0.15190000  1
  H  H28  1  0.89000000  0.27380000  0.89330000  1
  H  H29  1  0.89000000  0.27380000  0.60670000  1
  H  H30  1  0.88090000  0.92690000  0.34810000  1
  H  H31  1  0.88090000  0.92690000  0.15190000  1
  H  H32  1  0.85360000  0.96240000  0.84810000  1
  H  H33  1  0.85360000  0.96240000  0.65190000  1
  H  H34  1  0.84720000  0.03320000  0.86760000  1
  H  H35  1  0.84720000  0.03320000  0.63240000  1
  H  H36  1  0.81400000  0.84720000  0.36760000  1
  H  H37  1  0.81400000  0.84720000  0.13240000  1
  H  H38  1  0.76320000  0.24930000  0.48960000  1
  H  H39  1  0.76320000  0.24930000  0.01040000  1
  H  H40  1  0.76060000  0.03130000  0.86560000  1
  H  H41  1  0.76060000  0.03130000  0.63440000  1
  H  H42  1  0.75070000  0.51390000  0.48960000  1
  H  H43  1  0.75070000  0.51390000  0.01040000  1
  H  H44  1  0.72930000  0.76060000  0.36560000  1
  H  H45  1  0.72930000  0.76060000  0.13440000  1
  H  H46  1  0.72620000  0.61620000  0.89330000  1
  H  H47  1  0.72620000  0.61620000  0.60670000  1
  H  H48  1  0.71240000  0.05880000  0.83420000  1
  H  H49  1  0.71240000  0.05880000  0.66580000  1
  H  H50  1  0.69000000  0.07640000  0.91460000  1
  H  H51  1  0.69000000  0.07640000  0.58540000  1
  H  H52  1  0.65360000  0.71240000  0.33420000  1
  H  H53  1  0.65360000  0.71240000  0.16580000  1
  H  H54  1  0.61620000  0.89000000  0.39330000  1
  H  H55  1  0.61620000  0.89000000  0.10670000  1
  H  H56  1  0.61360000  0.69000000  0.41460000  1
  H  H57  1  0.61360000  0.69000000  0.08540000  1
  H  H58  1  0.51390000  0.76320000  0.98960000  1
  H  H59  1  0.51390000  0.76320000  0.51040000  1
  H  H60  1  0.48610000  0.23680000  0.48960000  1
  H  H61  1  0.48610000  0.23680000  0.01040000  1
  H  H62  1  0.38640000  0.31000000  0.91460000  1
  H  H63  1  0.38640000  0.31000000  0.58540000  1
  H  H64  1  0.38380000  0.11000000  0.89330000  1
  H  H65  1  0.38380000  0.11000000  0.60670000  1
  H  H66  1  0.34640000  0.28760000  0.83420000  1
  H  H67  1  0.34640000  0.28760000  0.66580000  1
  H  H68  1  0.31000000  0.92360000  0.41460000  1
  H  H69  1  0.31000000  0.92360000  0.08540000  1
  H  H70  1  0.28760000  0.94120000  0.33420000  1
  H  H71  1  0.28760000  0.94120000  0.16580000  1
  H  H72  1  0.27380000  0.38380000  0.39330000  1
  H  H73  1  0.27380000  0.38380000  0.10670000  1
  H  H74  1  0.27070000  0.23940000  0.86560000  1
  H  H75  1  0.27070000  0.23940000  0.63440000  1
  H  H76  1  0.24930000  0.48610000  0.98960000  1
  H  H77  1  0.24930000  0.48610000  0.51040000  1
  H  H78  1  0.23940000  0.96870000  0.36560000  1
  H  H79  1  0.23940000  0.96870000  0.13440000  1
  H  H80  1  0.23680000  0.75070000  0.98960000  1
  H  H81  1  0.23680000  0.75070000  0.51040000  1
  H  H82  1  0.18600000  0.15280000  0.86760000  1
  H  H83  1  0.18600000  0.15280000  0.63240000  1
  H  H84  1  0.15280000  0.96680000  0.36760000  1
  H  H85  1  0.15280000  0.96680000  0.13240000  1
  H  H86  1  0.14640000  0.03760000  0.34810000  1
  H  H87  1  0.14640000  0.03760000  0.15190000  1
  H  H88  1  0.11910000  0.07310000  0.84810000  1
  H  H89  1  0.11910000  0.07310000  0.65190000  1
  H  H90  1  0.11000000  0.72620000  0.39330000  1
  H  H91  1  0.11000000  0.72620000  0.10670000  1
  H  H92  1  0.10880000  0.14640000  0.84810000  1
  H  H93  1  0.10880000  0.14640000  0.65190000  1
  H  H94  1  0.07640000  0.38640000  0.41460000  1
  H  H95  1  0.07640000  0.38640000  0.08540000  1
  H  H96  1  0.07310000  0.95400000  0.34810000  1
  H  H97  1  0.07310000  0.95400000  0.15190000  1
  H  H98  1  0.05880000  0.34640000  0.33420000  1
  H  H99  1  0.05880000  0.34640000  0.16580000  1
  H  H100  1  0.04600000  0.11910000  0.34810000  1
  H  H101  1  0.04600000  0.11910000  0.15190000  1
  H  H102  1  0.03760000  0.89120000  0.84810000  1
  H  H103  1  0.03760000  0.89120000  0.65190000  1
  H  H104  1  0.03320000  0.18600000  0.36760000  1
  H  H105  1  0.03320000  0.18600000  0.13240000  1
  H  H106  1  0.03130000  0.27070000  0.36560000  1
  H  H107  1  0.03130000  0.27070000  0.13440000  1
  C  C108  1  0.98320000  0.85470000  0.84390000  1
  C  C109  1  0.98320000  0.85470000  0.65610000  1
  C  C110  1  0.98250000  0.85530000  0.75000000  1
  C  C111  1  0.96970000  0.82090000  0.79410000  1
  C  C112  1  0.96970000  0.82090000  0.70590000  1
  C  C113  1  0.94300000  0.74410000  0.79370000  1
  C  C114  1  0.94300000  0.74410000  0.70630000  1
  C  C115  1  0.93250000  0.69660000  0.84070000  1
  C  C116  1  0.93250000  0.69660000  0.65930000  1
  C  C117  1  0.92140000  0.69750000  0.75000000  1
  C  C118  1  0.89250000  0.35410000  0.96950000  1
  C  C119  1  0.89250000  0.35410000  0.53050000  1
  C  C120  1  0.89130000  0.53670000  0.99470000  1
  C  C121  1  0.89130000  0.53670000  0.50530000  1
  C  C122  1  0.87450000  0.60160000  0.92520000  1
  C  C123  1  0.87450000  0.60160000  0.57480000  1
  C  C124  1  0.87280000  0.01750000  0.75000000  1
  C  C125  1  0.87150000  0.01680000  0.84390000  1
  C  C126  1  0.87150000  0.01680000  0.65610000  1
  C  C127  1  0.85530000  0.87280000  0.25000000  1
  C  C128  1  0.85470000  0.87150000  0.34390000  1
  C  C129  1  0.85470000  0.87150000  0.15610000  1
  C  C130  1  0.85120000  0.03030000  0.79410000  1
  C  C131  1  0.85120000  0.03030000  0.70590000  1
  C  C132  1  0.84680000  0.24400000  0.91270000  1
  C  C133  1  0.84680000  0.24400000  0.58730000  1
  C  C134  1  0.84390000  0.56070000  0.96800000  1
  C  C135  1  0.84390000  0.56070000  0.53200000  1
  C  C136  1  0.83610000  0.27370000  0.95460000  1
  C  C137  1  0.83610000  0.27370000  0.54540000  1
  C  C138  1  0.83070000  0.62360000  0.89940000  1
  C  C139  1  0.83070000  0.62360000  0.60060000  1
  C  C140  1  0.82090000  0.85120000  0.29410000  1
  C  C141  1  0.82090000  0.85120000  0.20590000  1
  C  C142  1  0.80110000  0.05700000  0.79370000  1
  C  C143  1  0.80110000  0.05700000  0.70630000  1
  C  C144  1  0.79290000  0.16930000  0.89940000  1
  C  C145  1  0.79290000  0.16930000  0.60060000  1
  C  C146  1  0.77610000  0.07860000  0.75000000  1
  C  C147  1  0.77100000  0.54180000  0.98170000  1
  C  C148  1  0.77100000  0.54180000  0.51830000  1
  C  C149  1  0.77080000  0.22900000  0.98170000  1
  C  C150  1  0.77080000  0.22900000  0.51830000  1
  C  C151  1  0.76410000  0.06750000  0.84070000  1
  C  C152  1  0.76410000  0.06750000  0.65930000  1
  C  C153  1  0.75600000  0.60280000  0.91270000  1
  C  C154  1  0.75600000  0.60280000  0.58730000  1
  C  C155  1  0.74410000  0.80110000  0.29370000  1
  C  C156  1  0.74410000  0.80110000  0.20630000  1
  C  C157  1  0.72710000  0.12550000  0.92520000  1
  C  C158  1  0.72710000  0.12550000  0.57480000  1
  C  C159  1  0.72630000  0.56240000  0.95460000  1
  C  C160  1  0.72630000  0.56240000  0.54540000  1
  C  C161  1  0.71680000  0.15610000  0.96800000  1
  C  C162  1  0.71680000  0.15610000  0.53200000  1
  C  C163  1  0.69750000  0.77610000  0.25000000  1
  C  C164  1  0.69660000  0.76410000  0.34070000  1
  C  C165  1  0.69660000  0.76410000  0.15930000  1
  C  C166  1  0.64590000  0.53840000  0.96950000  1
  C  C167  1  0.64590000  0.53840000  0.53050000  1
  C  C168  1  0.64540000  0.10870000  0.99470000  1
  C  C169  1  0.64540000  0.10870000  0.50530000  1
  C  C170  1  0.62360000  0.79290000  0.39940000  1
  C  C171  1  0.62360000  0.79290000  0.10060000  1
  C  C172  1  0.60280000  0.84680000  0.41270000  1
  C  C173  1  0.60280000  0.84680000  0.08730000  1
  C  C174  1  0.60160000  0.72710000  0.42520000  1
  C  C175  1  0.60160000  0.72710000  0.07480000  1
  C  C176  1  0.56240000  0.83610000  0.45460000  1
  C  C177  1  0.56240000  0.83610000  0.04540000  1
  C  C178  1  0.56070000  0.71680000  0.46800000  1
  C  C179  1  0.56070000  0.71680000  0.03200000  1
  C  C180  1  0.54180000  0.77080000  0.48170000  1
  C  C181  1  0.54180000  0.77080000  0.01830000  1
  C  C182  1  0.53840000  0.89250000  0.46950000  1
  C  C183  1  0.53840000  0.89250000  0.03050000  1
  C  C184  1  0.53670000  0.64540000  0.49470000  1
  C  C185  1  0.53670000  0.64540000  0.00530000  1
  C  C186  1  0.46330000  0.35460000  0.99470000  1
  C  C187  1  0.46330000  0.35460000  0.50530000  1
  C  C188  1  0.46160000  0.10750000  0.96950000  1
  C  C189  1  0.46160000  0.10750000  0.53050000  1
  C  C190  1  0.45820000  0.22920000  0.98170000  1
  C  C191  1  0.45820000  0.22920000  0.51830000  1
  C  C192  1  0.43930000  0.28320000  0.96800000  1
  C  C193  1  0.43930000  0.28320000  0.53200000  1
  C  C194  1  0.43760000  0.16390000  0.95460000  1
  C  C195  1  0.43760000  0.16390000  0.54540000  1
  C  C196  1  0.39840000  0.27290000  0.92520000  1
  C  C197  1  0.39840000  0.27290000  0.57480000  1
  C  C198  1  0.39720000  0.15320000  0.91270000  1
  C  C199  1  0.39720000  0.15320000  0.58730000  1
  C  C200  1  0.37640000  0.20710000  0.89940000  1
  C  C201  1  0.37640000  0.20710000  0.60060000  1
  C  C202  1  0.35460000  0.89130000  0.49470000  1
  C  C203  1  0.35460000  0.89130000  0.00530000  1
  C  C204  1  0.35410000  0.46160000  0.46950000  1
  C  C205  1  0.35410000  0.46160000  0.03050000  1
  C  C206  1  0.30340000  0.23590000  0.84070000  1
  C  C207  1  0.30340000  0.23590000  0.65930000  1
  C  C208  1  0.30250000  0.22390000  0.75000000  1
  C  C209  1  0.28320000  0.84390000  0.46800000  1
  C  C210  1  0.28320000  0.84390000  0.03200000  1
  C  C211  1  0.27370000  0.43760000  0.45460000  1
  C  C212  1  0.27370000  0.43760000  0.04540000  1
  C  C213  1  0.27290000  0.87450000  0.42520000  1
  C  C214  1  0.27290000  0.87450000  0.07480000  1
  C  C215  1  0.25590000  0.19890000  0.79370000  1
  C  C216  1  0.25590000  0.19890000  0.70630000  1
  C  C217  1  0.24400000  0.39720000  0.41270000  1
  C  C218  1  0.24400000  0.39720000  0.08730000  1
  C  C219  1  0.23590000  0.93250000  0.34070000  1
  C  C220  1  0.23590000  0.93250000  0.15930000  1
  C  C221  1  0.22920000  0.77100000  0.48170000  1
  C  C222  1  0.22920000  0.77100000  0.01830000  1
  C  C223  1  0.22900000  0.45820000  0.48170000  1
  C  C224  1  0.22900000  0.45820000  0.01830000  1
  C  C225  1  0.22390000  0.92140000  0.25000000  1
  C  C226  1  0.20710000  0.83070000  0.39940000  1
  C  C227  1  0.20710000  0.83070000  0.10060000  1
  C  C228  1  0.19890000  0.94300000  0.29370000  1
  C  C229  1  0.19890000  0.94300000  0.20630000  1
  C  C230  1  0.17910000  0.14880000  0.79410000  1
  C  C231  1  0.17910000  0.14880000  0.70590000  1
  C  C232  1  0.16930000  0.37640000  0.39940000  1
  C  C233  1  0.16930000  0.37640000  0.10060000  1
  C  C234  1  0.16390000  0.72630000  0.45460000  1
  C  C235  1  0.16390000  0.72630000  0.04540000  1
  C  C236  1  0.15610000  0.43930000  0.46800000  1
  C  C237  1  0.15610000  0.43930000  0.03200000  1
  C  C238  1  0.15320000  0.75600000  0.41270000  1
  C  C239  1  0.15320000  0.75600000  0.08730000  1
  C  C240  1  0.14880000  0.96970000  0.29410000  1
  C  C241  1  0.14880000  0.96970000  0.20590000  1
  C  C242  1  0.14530000  0.12850000  0.84390000  1
  C  C243  1  0.14530000  0.12850000  0.65610000  1
  C  C244  1  0.14470000  0.12720000  0.75000000  1
  C  C245  1  0.12850000  0.98320000  0.34390000  1
  C  C246  1  0.12850000  0.98320000  0.15610000  1
  C  C247  1  0.12720000  0.98250000  0.25000000  1
  C  C248  1  0.12550000  0.39840000  0.42520000  1
  C  C249  1  0.12550000  0.39840000  0.07480000  1
  C  C250  1  0.10870000  0.46330000  0.49470000  1
  C  C251  1  0.10870000  0.46330000  0.00530000  1
  C  C252  1  0.10750000  0.64590000  0.46950000  1
  C  C253  1  0.10750000  0.64590000  0.03050000  1
  C  C254  1  0.07860000  0.30250000  0.25000000  1
  C  C255  1  0.06750000  0.30340000  0.34070000  1
  C  C256  1  0.06750000  0.30340000  0.15930000  1
  C  C257  1  0.05700000  0.25590000  0.29370000  1
  C  C258  1  0.05700000  0.25590000  0.20630000  1
  C  C259  1  0.03030000  0.17910000  0.29410000  1
  C  C260  1  0.03030000  0.17910000  0.20590000  1
  C  C261  1  0.01750000  0.14470000  0.25000000  1
  C  C262  1  0.01680000  0.14530000  0.34390000  1
  C  C263  1  0.01680000  0.14530000  0.15610000  1
  O  O264  1  0.95050000  0.53920000  0.97770000  1
  O  O265  1  0.95050000  0.53920000  0.52230000  1
  O  O266  1  0.94540000  0.39570000  0.94050000  1
  O  O267  1  0.94540000  0.39570000  0.55950000  1
  O  O268  1  0.88350000  0.37410000  0.49100000  1
  O  O269  1  0.88350000  0.37410000  0.00900000  1
  O  O270  1  0.86840000  0.51270000  0.46290000  1
  O  O271  1  0.86840000  0.51270000  0.03710000  1
  O  O272  1  0.85360000  0.66860000  0.85590000  1
  O  O273  1  0.85360000  0.66860000  0.64410000  1
  O  O274  1  0.81500000  0.14640000  0.85590000  1
  O  O275  1  0.81500000  0.14640000  0.64410000  1
  O  O276  1  0.66860000  0.81500000  0.35590000  1
  O  O277  1  0.66860000  0.81500000  0.14410000  1
  O  O278  1  0.64430000  0.13160000  0.46290000  1
  O  O279  1  0.64430000  0.13160000  0.03710000  1
  O  O280  1  0.62590000  0.50940000  0.49100000  1
  O  O281  1  0.62590000  0.50940000  0.00900000  1
  O  O282  1  0.60430000  0.54970000  0.94050000  1
  O  O283  1  0.60430000  0.54970000  0.55950000  1
  O  O284  1  0.58870000  0.04950000  0.97770000  1
  O  O285  1  0.58870000  0.04950000  0.52230000  1
  O  O286  1  0.54970000  0.94540000  0.44050000  1
  O  O287  1  0.54970000  0.94540000  0.05950000  1
  O  O288  1  0.53920000  0.58870000  0.47770000  1
  O  O289  1  0.53920000  0.58870000  0.02230000  1
  O  O290  1  0.51270000  0.64430000  0.96290000  1
  O  O291  1  0.51270000  0.64430000  0.53710000  1
  O  O292  1  0.50940000  0.88350000  0.99100000  1
  O  O293  1  0.50940000  0.88350000  0.50900000  1
  O  O294  1  0.49060000  0.11650000  0.49100000  1
  O  O295  1  0.49060000  0.11650000  0.00900000  1
  O  O296  1  0.48730000  0.35570000  0.46290000  1
  O  O297  1  0.48730000  0.35570000  0.03710000  1
  O  O298  1  0.46080000  0.41130000  0.97770000  1
  O  O299  1  0.46080000  0.41130000  0.52230000  1
  O  O300  1  0.45030000  0.05460000  0.94050000  1
  O  O301  1  0.45030000  0.05460000  0.55950000  1
  O  O302  1  0.41130000  0.95050000  0.47770000  1
  O  O303  1  0.41130000  0.95050000  0.02230000  1
  O  O304  1  0.39570000  0.45030000  0.44050000  1
  O  O305  1  0.39570000  0.45030000  0.05950000  1
  O  O306  1  0.37410000  0.49060000  0.99100000  1
  O  O307  1  0.37410000  0.49060000  0.50900000  1
  O  O308  1  0.35570000  0.86840000  0.96290000  1
  O  O309  1  0.35570000  0.86840000  0.53710000  1
  O  O310  1  0.33140000  0.18500000  0.85590000  1
  O  O311  1  0.33140000  0.18500000  0.64410000  1
  O  O312  1  0.18500000  0.85360000  0.35590000  1
  O  O313  1  0.18500000  0.85360000  0.14410000  1
  O  O314  1  0.14640000  0.33140000  0.35590000  1
  O  O315  1  0.14640000  0.33140000  0.14410000  1
  O  O316  1  0.13160000  0.48730000  0.96290000  1
  O  O317  1  0.13160000  0.48730000  0.53710000  1
  O  O318  1  0.11650000  0.62590000  0.99100000  1
  O  O319  1  0.11650000  0.62590000  0.50900000  1
  O  O320  1  0.05460000  0.60430000  0.44050000  1
  O  O321  1  0.05460000  0.60430000  0.05950000  1
  O  O322  1  0.04950000  0.46080000  0.47770000  1
  O  O323  1  0.04950000  0.46080000  0.02230000  1
