# generated using pymatgen
data_Cu2H8C17O10
_symmetry_space_group_name_H-M   'P 1'
_cell_length_a   23.56700000
_cell_length_b   23.56700000
_cell_length_c   46.99700000
_cell_angle_alpha   90.00000000
_cell_angle_beta   90.00000000
_cell_angle_gamma   90.00000000
_symmetry_Int_Tables_number   1
_chemical_formula_structural   Cu2H8C17O10
_chemical_formula_sum   'Cu48 H192 C408 O240'
_cell_volume   26102.29777253
_cell_formula_units_Z   24
loop_
 _symmetry_equiv_pos_site_id
 _symmetry_equiv_pos_as_xyz
  1  'x, y, z'
loop_
 _atom_site_type_symbol
 _atom_site_label
 _atom_site_symmetry_multiplicity
 _atom_site_fract_x
 _atom_site_fract_y
 _atom_site_fract_z
 _atom_site_occupancy
  Cu  Cu0  1  0.03039000  0.23727000  0.38111000  1
  Cu  Cu1  1  0.03039000  0.23727000  0.61889000  1
  Cu  Cu2  1  0.03039000  0.76273000  0.11889000  1
  Cu  Cu3  1  0.03039000  0.76273000  0.88111000  1
  Cu  Cu4  1  0.03936000  0.31541000  0.34095000  1
  Cu  Cu5  1  0.03936000  0.31541000  0.65905000  1
  Cu  Cu6  1  0.03936000  0.68459000  0.15905000  1
  Cu  Cu7  1  0.03936000  0.68459000  0.84095000  1
  Cu  Cu8  1  0.21327000  0.26373000  0.00000000  1
  Cu  Cu9  1  0.21327000  0.73627000  0.50000000  1
  Cu  Cu10  1  0.23727000  0.03039000  0.11889000  1
  Cu  Cu11  1  0.23727000  0.03039000  0.88111000  1
  Cu  Cu12  1  0.23727000  0.96961000  0.38111000  1
  Cu  Cu13  1  0.23727000  0.96961000  0.61889000  1
  Cu  Cu14  1  0.26373000  0.21327000  0.50000000  1
  Cu  Cu15  1  0.26373000  0.78673000  0.00000000  1
  Cu  Cu16  1  0.28307000  0.35119000  0.00000000  1
  Cu  Cu17  1  0.28307000  0.64881000  0.50000000  1
  Cu  Cu18  1  0.31541000  0.03936000  0.15905000  1
  Cu  Cu19  1  0.31541000  0.03936000  0.84095000  1
  Cu  Cu20  1  0.31541000  0.96064000  0.34095000  1
  Cu  Cu21  1  0.31541000  0.96064000  0.65905000  1
  Cu  Cu22  1  0.35119000  0.28307000  0.50000000  1
  Cu  Cu23  1  0.35119000  0.71693000  0.00000000  1
  Cu  Cu24  1  0.64881000  0.28307000  0.00000000  1
  Cu  Cu25  1  0.64881000  0.71693000  0.50000000  1
  Cu  Cu26  1  0.68459000  0.03936000  0.34095000  1
  Cu  Cu27  1  0.68459000  0.03936000  0.65905000  1
  Cu  Cu28  1  0.68459000  0.96064000  0.15905000  1
  Cu  Cu29  1  0.68459000  0.96064000  0.84095000  1
  Cu  Cu30  1  0.71693000  0.35119000  0.50000000  1
  Cu  Cu31  1  0.71693000  0.64881000  0.00000000  1
  Cu  Cu32  1  0.73627000  0.21327000  0.00000000  1
  Cu  Cu33  1  0.73627000  0.78673000  0.50000000  1
  Cu  Cu34  1  0.76273000  0.03039000  0.38111000  1
  Cu  Cu35  1  0.76273000  0.03039000  0.61889000  1
  Cu  Cu36  1  0.76273000  0.96961000  0.11889000  1
  Cu  Cu37  1  0.76273000  0.96961000  0.88111000  1
  Cu  Cu38  1  0.78673000  0.26373000  0.50000000  1
  Cu  Cu39  1  0.78673000  0.73627000  0.00000000  1
  Cu  Cu40  1  0.96064000  0.31541000  0.15905000  1
  Cu  Cu41  1  0.96064000  0.31541000  0.84095000  1
  Cu  Cu42  1  0.96064000  0.68459000  0.34095000  1
  Cu  Cu43  1  0.96064000  0.68459000  0.65905000  1
  Cu  Cu44  1  0.96961000  0.23727000  0.11889000  1
  Cu  Cu45  1  0.96961000  0.23727000  0.88111000  1
  Cu  Cu46  1  0.96961000  0.76273000  0.38111000  1
  Cu  Cu47  1  0.96961000  0.76273000  0.61889000  1
  H  H48  1  0.09560000  0.42120000  0.13250000  1
  H  H49  1  0.09560000  0.42120000  0.86750000  1
  H  H50  1  0.09560000  0.57880000  0.36750000  1
  H  H51  1  0.09560000  0.57880000  0.63250000  1
  H  H52  1  0.09850000  0.26620000  0.21210000  1
  H  H53  1  0.09850000  0.26620000  0.78790000  1
  H  H54  1  0.09850000  0.73380000  0.28790000  1
  H  H55  1  0.09850000  0.73380000  0.71210000  1
  H  H56  1  0.09920000  0.31420000  0.06660000  1
  H  H57  1  0.09920000  0.31420000  0.93340000  1
  H  H58  1  0.09920000  0.68580000  0.43340000  1
  H  H59  1  0.09920000  0.68580000  0.56660000  1
  H  H60  1  0.11780000  0.15110000  0.15020000  1
  H  H61  1  0.11780000  0.15110000  0.84980000  1
  H  H62  1  0.11780000  0.84890000  0.34980000  1
  H  H63  1  0.11780000  0.84890000  0.65020000  1
  H  H64  1  0.15110000  0.11780000  0.34980000  1
  H  H65  1  0.15110000  0.11780000  0.65020000  1
  H  H66  1  0.15110000  0.88220000  0.15020000  1
  H  H67  1  0.15110000  0.88220000  0.84980000  1
  H  H68  1  0.16830000  0.42110000  0.37970000  1
  H  H69  1  0.16830000  0.42110000  0.62030000  1
  H  H70  1  0.16830000  0.57890000  0.12030000  1
  H  H71  1  0.16830000  0.57890000  0.87970000  1
  H  H72  1  0.16850000  0.23730000  0.28980000  1
  H  H73  1  0.16850000  0.23730000  0.71020000  1
  H  H74  1  0.16850000  0.76270000  0.21020000  1
  H  H75  1  0.16850000  0.76270000  0.78980000  1
  H  H76  1  0.17130000  0.28570000  0.43160000  1
  H  H77  1  0.17130000  0.28570000  0.56840000  1
  H  H78  1  0.17130000  0.71430000  0.06840000  1
  H  H79  1  0.17130000  0.71430000  0.93160000  1
  H  H80  1  0.21850000  0.43550000  0.07400000  1
  H  H81  1  0.21850000  0.43550000  0.92600000  1
  H  H82  1  0.21850000  0.56450000  0.42600000  1
  H  H83  1  0.21850000  0.56450000  0.57400000  1
  H  H84  1  0.23730000  0.16850000  0.21020000  1
  H  H85  1  0.23730000  0.16850000  0.78980000  1
  H  H86  1  0.23730000  0.83150000  0.28980000  1
  H  H87  1  0.23730000  0.83150000  0.71020000  1
  H  H88  1  0.24500000  0.48030000  0.36360000  1
  H  H89  1  0.24500000  0.48030000  0.63640000  1
  H  H90  1  0.24500000  0.51970000  0.13640000  1
  H  H91  1  0.24500000  0.51970000  0.86360000  1
  H  H92  1  0.24860000  0.26900000  0.26500000  1
  H  H93  1  0.24860000  0.26900000  0.73500000  1
  H  H94  1  0.24860000  0.73100000  0.23500000  1
  H  H95  1  0.24860000  0.73100000  0.76500000  1
  H  H96  1  0.25970000  0.46100000  0.12270000  1
  H  H97  1  0.25970000  0.46100000  0.87730000  1
  H  H98  1  0.25970000  0.53900000  0.37730000  1
  H  H99  1  0.25970000  0.53900000  0.62270000  1
  H  H100  1  0.26620000  0.09850000  0.28790000  1
  H  H101  1  0.26620000  0.09850000  0.71210000  1
  H  H102  1  0.26620000  0.90150000  0.21210000  1
  H  H103  1  0.26620000  0.90150000  0.78790000  1
  H  H104  1  0.26900000  0.24860000  0.23500000  1
  H  H105  1  0.26900000  0.24860000  0.76500000  1
  H  H106  1  0.26900000  0.75140000  0.26500000  1
  H  H107  1  0.26900000  0.75140000  0.73500000  1
  H  H108  1  0.28510000  0.41020000  0.44180000  1
  H  H109  1  0.28510000  0.41020000  0.55820000  1
  H  H110  1  0.28510000  0.58980000  0.05820000  1
  H  H111  1  0.28510000  0.58980000  0.94180000  1
  H  H112  1  0.28570000  0.17130000  0.06840000  1
  H  H113  1  0.28570000  0.17130000  0.93160000  1
  H  H114  1  0.28570000  0.82870000  0.43160000  1
  H  H115  1  0.28570000  0.82870000  0.56840000  1
  H  H116  1  0.31420000  0.09920000  0.43340000  1
  H  H117  1  0.31420000  0.09920000  0.56660000  1
  H  H118  1  0.31420000  0.90080000  0.06660000  1
  H  H119  1  0.31420000  0.90080000  0.93340000  1
  H  H120  1  0.41020000  0.28510000  0.05820000  1
  H  H121  1  0.41020000  0.28510000  0.94180000  1
  H  H122  1  0.41020000  0.71490000  0.44180000  1
  H  H123  1  0.41020000  0.71490000  0.55820000  1
  H  H124  1  0.42110000  0.16830000  0.12030000  1
  H  H125  1  0.42110000  0.16830000  0.87970000  1
  H  H126  1  0.42110000  0.83170000  0.37970000  1
  H  H127  1  0.42110000  0.83170000  0.62030000  1
  H  H128  1  0.42120000  0.09560000  0.36750000  1
  H  H129  1  0.42120000  0.09560000  0.63250000  1
  H  H130  1  0.42120000  0.90440000  0.13250000  1
  H  H131  1  0.42120000  0.90440000  0.86750000  1
  H  H132  1  0.43550000  0.21850000  0.42600000  1
  H  H133  1  0.43550000  0.21850000  0.57400000  1
  H  H134  1  0.43550000  0.78150000  0.07400000  1
  H  H135  1  0.43550000  0.78150000  0.92600000  1
  H  H136  1  0.46100000  0.25970000  0.37730000  1
  H  H137  1  0.46100000  0.25970000  0.62270000  1
  H  H138  1  0.46100000  0.74030000  0.12270000  1
  H  H139  1  0.46100000  0.74030000  0.87730000  1
  H  H140  1  0.48030000  0.24500000  0.13640000  1
  H  H141  1  0.48030000  0.24500000  0.86360000  1
  H  H142  1  0.48030000  0.75500000  0.36360000  1
  H  H143  1  0.48030000  0.75500000  0.63640000  1
  H  H144  1  0.51970000  0.24500000  0.36360000  1
  H  H145  1  0.51970000  0.24500000  0.63640000  1
  H  H146  1  0.51970000  0.75500000  0.13640000  1
  H  H147  1  0.51970000  0.75500000  0.86360000  1
  H  H148  1  0.53900000  0.25970000  0.12270000  1
  H  H149  1  0.53900000  0.25970000  0.87730000  1
  H  H150  1  0.53900000  0.74030000  0.37730000  1
  H  H151  1  0.53900000  0.74030000  0.62270000  1
  H  H152  1  0.56450000  0.21850000  0.07400000  1
  H  H153  1  0.56450000  0.21850000  0.92600000  1
  H  H154  1  0.56450000  0.78150000  0.42600000  1
  H  H155  1  0.56450000  0.78150000  0.57400000  1
  H  H156  1  0.57880000  0.09560000  0.13250000  1
  H  H157  1  0.57880000  0.09560000  0.86750000  1
  H  H158  1  0.57880000  0.90440000  0.36750000  1
  H  H159  1  0.57880000  0.90440000  0.63250000  1
  H  H160  1  0.57890000  0.16830000  0.37970000  1
  H  H161  1  0.57890000  0.16830000  0.62030000  1
  H  H162  1  0.57890000  0.83170000  0.12030000  1
  H  H163  1  0.57890000  0.83170000  0.87970000  1
  H  H164  1  0.58980000  0.28510000  0.44180000  1
  H  H165  1  0.58980000  0.28510000  0.55820000  1
  H  H166  1  0.58980000  0.71490000  0.05820000  1
  H  H167  1  0.58980000  0.71490000  0.94180000  1
  H  H168  1  0.68580000  0.09920000  0.06660000  1
  H  H169  1  0.68580000  0.09920000  0.93340000  1
  H  H170  1  0.68580000  0.90080000  0.43340000  1
  H  H171  1  0.68580000  0.90080000  0.56660000  1
  H  H172  1  0.71430000  0.17130000  0.43160000  1
  H  H173  1  0.71430000  0.17130000  0.56840000  1
  H  H174  1  0.71430000  0.82870000  0.06840000  1
  H  H175  1  0.71430000  0.82870000  0.93160000  1
  H  H176  1  0.71490000  0.41020000  0.05820000  1
  H  H177  1  0.71490000  0.41020000  0.94180000  1
  H  H178  1  0.71490000  0.58980000  0.44180000  1
  H  H179  1  0.71490000  0.58980000  0.55820000  1
  H  H180  1  0.73100000  0.24860000  0.26500000  1
  H  H181  1  0.73100000  0.24860000  0.73500000  1
  H  H182  1  0.73100000  0.75140000  0.23500000  1
  H  H183  1  0.73100000  0.75140000  0.76500000  1
  H  H184  1  0.73380000  0.09850000  0.21210000  1
  H  H185  1  0.73380000  0.09850000  0.78790000  1
  H  H186  1  0.73380000  0.90150000  0.28790000  1
  H  H187  1  0.73380000  0.90150000  0.71210000  1
  H  H188  1  0.74030000  0.46100000  0.37730000  1
  H  H189  1  0.74030000  0.46100000  0.62270000  1
  H  H190  1  0.74030000  0.53900000  0.12270000  1
  H  H191  1  0.74030000  0.53900000  0.87730000  1
  H  H192  1  0.75140000  0.26900000  0.23500000  1
  H  H193  1  0.75140000  0.26900000  0.76500000  1
  H  H194  1  0.75140000  0.73100000  0.26500000  1
  H  H195  1  0.75140000  0.73100000  0.73500000  1
  H  H196  1  0.75500000  0.48030000  0.13640000  1
  H  H197  1  0.75500000  0.48030000  0.86360000  1
  H  H198  1  0.75500000  0.51970000  0.36360000  1
  H  H199  1  0.75500000  0.51970000  0.63640000  1
  H  H200  1  0.76270000  0.16850000  0.28980000  1
  H  H201  1  0.76270000  0.16850000  0.71020000  1
  H  H202  1  0.76270000  0.83150000  0.21020000  1
  H  H203  1  0.76270000  0.83150000  0.78980000  1
  H  H204  1  0.78150000  0.43550000  0.42600000  1
  H  H205  1  0.78150000  0.43550000  0.57400000  1
  H  H206  1  0.78150000  0.56450000  0.07400000  1
  H  H207  1  0.78150000  0.56450000  0.92600000  1
  H  H208  1  0.82870000  0.28570000  0.06840000  1
  H  H209  1  0.82870000  0.28570000  0.93160000  1
  H  H210  1  0.82870000  0.71430000  0.43160000  1
  H  H211  1  0.82870000  0.71430000  0.56840000  1
  H  H212  1  0.83150000  0.23730000  0.21020000  1
  H  H213  1  0.83150000  0.23730000  0.78980000  1
  H  H214  1  0.83150000  0.76270000  0.28980000  1
  H  H215  1  0.83150000  0.76270000  0.71020000  1
  H  H216  1  0.83170000  0.42110000  0.12030000  1
  H  H217  1  0.83170000  0.42110000  0.87970000  1
  H  H218  1  0.83170000  0.57890000  0.37970000  1
  H  H219  1  0.83170000  0.57890000  0.62030000  1
  H  H220  1  0.84890000  0.11780000  0.15020000  1
  H  H221  1  0.84890000  0.11780000  0.84980000  1
  H  H222  1  0.84890000  0.88220000  0.34980000  1
  H  H223  1  0.84890000  0.88220000  0.65020000  1
  H  H224  1  0.88220000  0.15110000  0.34980000  1
  H  H225  1  0.88220000  0.15110000  0.65020000  1
  H  H226  1  0.88220000  0.84890000  0.15020000  1
  H  H227  1  0.88220000  0.84890000  0.84980000  1
  H  H228  1  0.90080000  0.31420000  0.43340000  1
  H  H229  1  0.90080000  0.31420000  0.56660000  1
  H  H230  1  0.90080000  0.68580000  0.06660000  1
  H  H231  1  0.90080000  0.68580000  0.93340000  1
  H  H232  1  0.90150000  0.26620000  0.28790000  1
  H  H233  1  0.90150000  0.26620000  0.71210000  1
  H  H234  1  0.90150000  0.73380000  0.21210000  1
  H  H235  1  0.90150000  0.73380000  0.78790000  1
  H  H236  1  0.90440000  0.42120000  0.36750000  1
  H  H237  1  0.90440000  0.42120000  0.63250000  1
  H  H238  1  0.90440000  0.57880000  0.13250000  1
  H  H239  1  0.90440000  0.57880000  0.86750000  1
  C  C240  1  0.04018000  0.33227000  0.11393000  1
  C  C241  1  0.04018000  0.33227000  0.88607000  1
  C  C242  1  0.04018000  0.66773000  0.38607000  1
  C  C243  1  0.04018000  0.66773000  0.61393000  1
  C  C244  1  0.04665000  0.23260000  0.16502000  1
  C  C245  1  0.04665000  0.23260000  0.83498000  1
  C  C246  1  0.04665000  0.76740000  0.33498000  1
  C  C247  1  0.04665000  0.76740000  0.66502000  1
  C  C248  1  0.09017000  0.36301000  0.10122000  1
  C  C249  1  0.09017000  0.36301000  0.89878000  1
  C  C250  1  0.09017000  0.63699000  0.39878000  1
  C  C251  1  0.09017000  0.63699000  0.60122000  1
  C  C252  1  0.10006000  0.21204000  0.17894000  1
  C  C253  1  0.10006000  0.21204000  0.82106000  1
  C  C254  1  0.10006000  0.78796000  0.32106000  1
  C  C255  1  0.10006000  0.78796000  0.67894000  1
  C  C256  1  0.10770000  0.21714000  0.33597000  1
  C  C257  1  0.10770000  0.21714000  0.66403000  1
  C  C258  1  0.10770000  0.78286000  0.16403000  1
  C  C259  1  0.10770000  0.78286000  0.83597000  1
  C  C260  1  0.11296000  0.40851000  0.11590000  1
  C  C261  1  0.11296000  0.40851000  0.88410000  1
  C  C262  1  0.11296000  0.59149000  0.38410000  1
  C  C263  1  0.11296000  0.59149000  0.61590000  1
  C  C264  1  0.11423000  0.32372000  0.38736000  1
  C  C265  1  0.11423000  0.32372000  0.61264000  1
  C  C266  1  0.11423000  0.67628000  0.11264000  1
  C  C267  1  0.11423000  0.67628000  0.88736000  1
  C  C268  1  0.11482000  0.34454000  0.07649000  1
  C  C269  1  0.11482000  0.34454000  0.92351000  1
  C  C270  1  0.11482000  0.65546000  0.42351000  1
  C  C271  1  0.11482000  0.65546000  0.57649000  1
  C  C272  1  0.11980000  0.23773000  0.20346000  1
  C  C273  1  0.11980000  0.23773000  0.79654000  1
  C  C274  1  0.11980000  0.76227000  0.29654000  1
  C  C275  1  0.11980000  0.76227000  0.70346000  1
  C  C276  1  0.13140000  0.16916000  0.16646000  1
  C  C277  1  0.13140000  0.16916000  0.83354000  1
  C  C278  1  0.13140000  0.83084000  0.33354000  1
  C  C279  1  0.13140000  0.83084000  0.66646000  1
  C  C280  1  0.15316000  0.18256000  0.32207000  1
  C  C281  1  0.15316000  0.18256000  0.67793000  1
  C  C282  1  0.15316000  0.81744000  0.17793000  1
  C  C283  1  0.15316000  0.81744000  0.82207000  1
  C  C284  1  0.16086000  0.43482000  0.10617000  1
  C  C285  1  0.16086000  0.43482000  0.89383000  1
  C  C286  1  0.16086000  0.56518000  0.39383000  1
  C  C287  1  0.16086000  0.56518000  0.60617000  1
  C  C288  1  0.16287000  0.37127000  0.06639000  1
  C  C289  1  0.16287000  0.37127000  0.93361000  1
  C  C290  1  0.16287000  0.62873000  0.43361000  1
  C  C291  1  0.16287000  0.62873000  0.56639000  1
  C  C292  1  0.16300000  0.34866000  0.40327000  1
  C  C293  1  0.16300000  0.34866000  0.59673000  1
  C  C294  1  0.16300000  0.65134000  0.09673000  1
  C  C295  1  0.16300000  0.65134000  0.90327000  1
  C  C296  1  0.16916000  0.13140000  0.33354000  1
  C  C297  1  0.16916000  0.13140000  0.66646000  1
  C  C298  1  0.16916000  0.86860000  0.16646000  1
  C  C299  1  0.16916000  0.86860000  0.83354000  1
  C  C300  1  0.17062000  0.22139000  0.21506000  1
  C  C301  1  0.17062000  0.22139000  0.78494000  1
  C  C302  1  0.17062000  0.77861000  0.28494000  1
  C  C303  1  0.17062000  0.77861000  0.71506000  1
  C  C304  1  0.17924000  0.20268000  0.29758000  1
  C  C305  1  0.17924000  0.20268000  0.70242000  1
  C  C306  1  0.17924000  0.79732000  0.20242000  1
  C  C307  1  0.17924000  0.79732000  0.79758000  1
  C  C308  1  0.18256000  0.15316000  0.17793000  1
  C  C309  1  0.18256000  0.15316000  0.82207000  1
  C  C310  1  0.18256000  0.84684000  0.32207000  1
  C  C311  1  0.18256000  0.84684000  0.67793000  1
  C  C312  1  0.18418000  0.40184000  0.39505000  1
  C  C313  1  0.18418000  0.40184000  0.60495000  1
  C  C314  1  0.18418000  0.59816000  0.10495000  1
  C  C315  1  0.18418000  0.59816000  0.89505000  1
  C  C316  1  0.18648000  0.41713000  0.08093000  1
  C  C317  1  0.18648000  0.41713000  0.91907000  1
  C  C318  1  0.18648000  0.58287000  0.41907000  1
  C  C319  1  0.18648000  0.58287000  0.58093000  1
  C  C320  1  0.18672000  0.32011000  0.42570000  1
  C  C321  1  0.18672000  0.32011000  0.57430000  1
  C  C322  1  0.18672000  0.67989000  0.07430000  1
  C  C323  1  0.18672000  0.67989000  0.92570000  1
  C  C324  1  0.19185000  0.34967000  0.03979000  1
  C  C325  1  0.19185000  0.34967000  0.96021000  1
  C  C326  1  0.19185000  0.65033000  0.46021000  1
  C  C327  1  0.19185000  0.65033000  0.53979000  1
  C  C328  1  0.20268000  0.17924000  0.20242000  1
  C  C329  1  0.20268000  0.17924000  0.79758000  1
  C  C330  1  0.20268000  0.82076000  0.29758000  1
  C  C331  1  0.20268000  0.82076000  0.70242000  1
  C  C332  1  0.21204000  0.10006000  0.32106000  1
  C  C333  1  0.21204000  0.10006000  0.67894000  1
  C  C334  1  0.21204000  0.89994000  0.17894000  1
  C  C335  1  0.21204000  0.89994000  0.82106000  1
  C  C336  1  0.21714000  0.10770000  0.16403000  1
  C  C337  1  0.21714000  0.10770000  0.83597000  1
  C  C338  1  0.21714000  0.89230000  0.33597000  1
  C  C339  1  0.21714000  0.89230000  0.66403000  1
  C  C340  1  0.22139000  0.17062000  0.28494000  1
  C  C341  1  0.22139000  0.17062000  0.71506000  1
  C  C342  1  0.22139000  0.82938000  0.21506000  1
  C  C343  1  0.22139000  0.82938000  0.78494000  1
  C  C344  1  0.22870000  0.42512000  0.40999000  1
  C  C345  1  0.22870000  0.42512000  0.59001000  1
  C  C346  1  0.22870000  0.57488000  0.09001000  1
  C  C347  1  0.22870000  0.57488000  0.90999000  1
  C  C348  1  0.23260000  0.04665000  0.33498000  1
  C  C349  1  0.23260000  0.04665000  0.66502000  1
  C  C350  1  0.23260000  0.95335000  0.16502000  1
  C  C351  1  0.23260000  0.95335000  0.83498000  1
  C  C352  1  0.23359000  0.34232000  0.43968000  1
  C  C353  1  0.23359000  0.34232000  0.56032000  1
  C  C354  1  0.23359000  0.65768000  0.06032000  1
  C  C355  1  0.23359000  0.65768000  0.93968000  1
  C  C356  1  0.23640000  0.49460000  0.12064000  1
  C  C357  1  0.23640000  0.49460000  0.87936000  1
  C  C358  1  0.23640000  0.50540000  0.37936000  1
  C  C359  1  0.23640000  0.50540000  0.62064000  1
  C  C360  1  0.23773000  0.11980000  0.29654000  1
  C  C361  1  0.23773000  0.11980000  0.70346000  1
  C  C362  1  0.23773000  0.88020000  0.20346000  1
  C  C363  1  0.23773000  0.88020000  0.79654000  1
  C  C364  1  0.24160000  0.24160000  0.25000000  1
  C  C365  1  0.24160000  0.24160000  0.75000000  1
  C  C366  1  0.24160000  0.75840000  0.25000000  1
  C  C367  1  0.24160000  0.75840000  0.75000000  1
  C  C368  1  0.25419000  0.39483000  0.43213000  1
  C  C369  1  0.25419000  0.39483000  0.56787000  1
  C  C370  1  0.25419000  0.60517000  0.06787000  1
  C  C371  1  0.25419000  0.60517000  0.93213000  1
  C  C372  1  0.26238000  0.30824000  0.46240000  1
  C  C373  1  0.26238000  0.30824000  0.53760000  1
  C  C374  1  0.26238000  0.69176000  0.03760000  1
  C  C375  1  0.26238000  0.69176000  0.96240000  1
  C  C376  1  0.30824000  0.26238000  0.03760000  1
  C  C377  1  0.30824000  0.26238000  0.96240000  1
  C  C378  1  0.30824000  0.73762000  0.46240000  1
  C  C379  1  0.30824000  0.73762000  0.53760000  1
  C  C380  1  0.32011000  0.18672000  0.07430000  1
  C  C381  1  0.32011000  0.18672000  0.92570000  1
  C  C382  1  0.32011000  0.81328000  0.42570000  1
  C  C383  1  0.32011000  0.81328000  0.57430000  1
  C  C384  1  0.32372000  0.11423000  0.11264000  1
  C  C385  1  0.32372000  0.11423000  0.88736000  1
  C  C386  1  0.32372000  0.88577000  0.38736000  1
  C  C387  1  0.32372000  0.88577000  0.61264000  1
  C  C388  1  0.33227000  0.04018000  0.38607000  1
  C  C389  1  0.33227000  0.04018000  0.61393000  1
  C  C390  1  0.33227000  0.95982000  0.11393000  1
  C  C391  1  0.33227000  0.95982000  0.88607000  1
  C  C392  1  0.34232000  0.23359000  0.06032000  1
  C  C393  1  0.34232000  0.23359000  0.93968000  1
  C  C394  1  0.34232000  0.76641000  0.43968000  1
  C  C395  1  0.34232000  0.76641000  0.56032000  1
  C  C396  1  0.34454000  0.11482000  0.42351000  1
  C  C397  1  0.34454000  0.11482000  0.57649000  1
  C  C398  1  0.34454000  0.88518000  0.07649000  1
  C  C399  1  0.34454000  0.88518000  0.92351000  1
  C  C400  1  0.34866000  0.16300000  0.09673000  1
  C  C401  1  0.34866000  0.16300000  0.90327000  1
  C  C402  1  0.34866000  0.83700000  0.40327000  1
  C  C403  1  0.34866000  0.83700000  0.59673000  1
  C  C404  1  0.34967000  0.19185000  0.46021000  1
  C  C405  1  0.34967000  0.19185000  0.53979000  1
  C  C406  1  0.34967000  0.80815000  0.03979000  1
  C  C407  1  0.34967000  0.80815000  0.96021000  1
  C  C408  1  0.36301000  0.09017000  0.39878000  1
  C  C409  1  0.36301000  0.09017000  0.60122000  1
  C  C410  1  0.36301000  0.90983000  0.10122000  1
  C  C411  1  0.36301000  0.90983000  0.89878000  1
  C  C412  1  0.37127000  0.16287000  0.43361000  1
  C  C413  1  0.37127000  0.16287000  0.56639000  1
  C  C414  1  0.37127000  0.83713000  0.06639000  1
  C  C415  1  0.37127000  0.83713000  0.93361000  1
  C  C416  1  0.39483000  0.25419000  0.06787000  1
  C  C417  1  0.39483000  0.25419000  0.93213000  1
  C  C418  1  0.39483000  0.74581000  0.43213000  1
  C  C419  1  0.39483000  0.74581000  0.56787000  1
  C  C420  1  0.40184000  0.18418000  0.10495000  1
  C  C421  1  0.40184000  0.18418000  0.89505000  1
  C  C422  1  0.40184000  0.81582000  0.39505000  1
  C  C423  1  0.40184000  0.81582000  0.60495000  1
  C  C424  1  0.40851000  0.11296000  0.38410000  1
  C  C425  1  0.40851000  0.11296000  0.61590000  1
  C  C426  1  0.40851000  0.88704000  0.11590000  1
  C  C427  1  0.40851000  0.88704000  0.88410000  1
  C  C428  1  0.41713000  0.18648000  0.41907000  1
  C  C429  1  0.41713000  0.18648000  0.58093000  1
  C  C430  1  0.41713000  0.81352000  0.08093000  1
  C  C431  1  0.41713000  0.81352000  0.91907000  1
  C  C432  1  0.42512000  0.22870000  0.09001000  1
  C  C433  1  0.42512000  0.22870000  0.90999000  1
  C  C434  1  0.42512000  0.77130000  0.40999000  1
  C  C435  1  0.42512000  0.77130000  0.59001000  1
  C  C436  1  0.43482000  0.16086000  0.39383000  1
  C  C437  1  0.43482000  0.16086000  0.60617000  1
  C  C438  1  0.43482000  0.83914000  0.10617000  1
  C  C439  1  0.43482000  0.83914000  0.89383000  1
  C  C440  1  0.49460000  0.23640000  0.37936000  1
  C  C441  1  0.49460000  0.23640000  0.62064000  1
  C  C442  1  0.49460000  0.76360000  0.12064000  1
  C  C443  1  0.49460000  0.76360000  0.87936000  1
  C  C444  1  0.50540000  0.23640000  0.12064000  1
  C  C445  1  0.50540000  0.23640000  0.87936000  1
  C  C446  1  0.50540000  0.76360000  0.37936000  1
  C  C447  1  0.50540000  0.76360000  0.62064000  1
  C  C448  1  0.56518000  0.16086000  0.10617000  1
  C  C449  1  0.56518000  0.16086000  0.89383000  1
  C  C450  1  0.56518000  0.83914000  0.39383000  1
  C  C451  1  0.56518000  0.83914000  0.60617000  1
  C  C452  1  0.57488000  0.22870000  0.40999000  1
  C  C453  1  0.57488000  0.22870000  0.59001000  1
  C  C454  1  0.57488000  0.77130000  0.09001000  1
  C  C455  1  0.57488000  0.77130000  0.90999000  1
  C  C456  1  0.58287000  0.18648000  0.08093000  1
  C  C457  1  0.58287000  0.18648000  0.91907000  1
  C  C458  1  0.58287000  0.81352000  0.41907000  1
  C  C459  1  0.58287000  0.81352000  0.58093000  1
  C  C460  1  0.59149000  0.11296000  0.11590000  1
  C  C461  1  0.59149000  0.11296000  0.88410000  1
  C  C462  1  0.59149000  0.88704000  0.38410000  1
  C  C463  1  0.59149000  0.88704000  0.61590000  1
  C  C464  1  0.59816000  0.18418000  0.39505000  1
  C  C465  1  0.59816000  0.18418000  0.60495000  1
  C  C466  1  0.59816000  0.81582000  0.10495000  1
  C  C467  1  0.59816000  0.81582000  0.89505000  1
  C  C468  1  0.60517000  0.25419000  0.43213000  1
  C  C469  1  0.60517000  0.25419000  0.56787000  1
  C  C470  1  0.60517000  0.74581000  0.06787000  1
  C  C471  1  0.60517000  0.74581000  0.93213000  1
  C  C472  1  0.62873000  0.16287000  0.06639000  1
  C  C473  1  0.62873000  0.16287000  0.93361000  1
  C  C474  1  0.62873000  0.83713000  0.43361000  1
  C  C475  1  0.62873000  0.83713000  0.56639000  1
  C  C476  1  0.63699000  0.09017000  0.10122000  1
  C  C477  1  0.63699000  0.09017000  0.89878000  1
  C  C478  1  0.63699000  0.90983000  0.39878000  1
  C  C479  1  0.63699000  0.90983000  0.60122000  1
  C  C480  1  0.65033000  0.19185000  0.03979000  1
  C  C481  1  0.65033000  0.19185000  0.96021000  1
  C  C482  1  0.65033000  0.80815000  0.46021000  1
  C  C483  1  0.65033000  0.80815000  0.53979000  1
  C  C484  1  0.65134000  0.16300000  0.40327000  1
  C  C485  1  0.65134000  0.16300000  0.59673000  1
  C  C486  1  0.65134000  0.83700000  0.09673000  1
  C  C487  1  0.65134000  0.83700000  0.90327000  1
  C  C488  1  0.65546000  0.11482000  0.07649000  1
  C  C489  1  0.65546000  0.11482000  0.92351000  1
  C  C490  1  0.65546000  0.88518000  0.42351000  1
  C  C491  1  0.65546000  0.88518000  0.57649000  1
  C  C492  1  0.65768000  0.23359000  0.43968000  1
  C  C493  1  0.65768000  0.23359000  0.56032000  1
  C  C494  1  0.65768000  0.76641000  0.06032000  1
  C  C495  1  0.65768000  0.76641000  0.93968000  1
  C  C496  1  0.66773000  0.04018000  0.11393000  1
  C  C497  1  0.66773000  0.04018000  0.88607000  1
  C  C498  1  0.66773000  0.95982000  0.38607000  1
  C  C499  1  0.66773000  0.95982000  0.61393000  1
  C  C500  1  0.67628000  0.11423000  0.38736000  1
  C  C501  1  0.67628000  0.11423000  0.61264000  1
  C  C502  1  0.67628000  0.88577000  0.11264000  1
  C  C503  1  0.67628000  0.88577000  0.88736000  1
  C  C504  1  0.67989000  0.18672000  0.42570000  1
  C  C505  1  0.67989000  0.18672000  0.57430000  1
  C  C506  1  0.67989000  0.81328000  0.07430000  1
  C  C507  1  0.67989000  0.81328000  0.92570000  1
  C  C508  1  0.69176000  0.26238000  0.46240000  1
  C  C509  1  0.69176000  0.26238000  0.53760000  1
  C  C510  1  0.69176000  0.73762000  0.03760000  1
  C  C511  1  0.69176000  0.73762000  0.96240000  1
  C  C512  1  0.73762000  0.30824000  0.03760000  1
  C  C513  1  0.73762000  0.30824000  0.96240000  1
  C  C514  1  0.73762000  0.69176000  0.46240000  1
  C  C515  1  0.73762000  0.69176000  0.53760000  1
  C  C516  1  0.74581000  0.39483000  0.06787000  1
  C  C517  1  0.74581000  0.39483000  0.93213000  1
  C  C518  1  0.74581000  0.60517000  0.43213000  1
  C  C519  1  0.74581000  0.60517000  0.56787000  1
  C  C520  1  0.75840000  0.24160000  0.25000000  1
  C  C521  1  0.75840000  0.24160000  0.75000000  1
  C  C522  1  0.75840000  0.75840000  0.25000000  1
  C  C523  1  0.75840000  0.75840000  0.75000000  1
  C  C524  1  0.76227000  0.11980000  0.20346000  1
  C  C525  1  0.76227000  0.11980000  0.79654000  1
  C  C526  1  0.76227000  0.88020000  0.29654000  1
  C  C527  1  0.76227000  0.88020000  0.70346000  1
  C  C528  1  0.76360000  0.49460000  0.37936000  1
  C  C529  1  0.76360000  0.49460000  0.62064000  1
  C  C530  1  0.76360000  0.50540000  0.12064000  1
  C  C531  1  0.76360000  0.50540000  0.87936000  1
  C  C532  1  0.76641000  0.34232000  0.06032000  1
  C  C533  1  0.76641000  0.34232000  0.93968000  1
  C  C534  1  0.76641000  0.65768000  0.43968000  1
  C  C535  1  0.76641000  0.65768000  0.56032000  1
  C  C536  1  0.76740000  0.04665000  0.16502000  1
  C  C537  1  0.76740000  0.04665000  0.83498000  1
  C  C538  1  0.76740000  0.95335000  0.33498000  1
  C  C539  1  0.76740000  0.95335000  0.66502000  1
  C  C540  1  0.77130000  0.42512000  0.09001000  1
  C  C541  1  0.77130000  0.42512000  0.90999000  1
  C  C542  1  0.77130000  0.57488000  0.40999000  1
  C  C543  1  0.77130000  0.57488000  0.59001000  1
  C  C544  1  0.77861000  0.17062000  0.21506000  1
  C  C545  1  0.77861000  0.17062000  0.78494000  1
  C  C546  1  0.77861000  0.82938000  0.28494000  1
  C  C547  1  0.77861000  0.82938000  0.71506000  1
  C  C548  1  0.78286000  0.10770000  0.33597000  1
  C  C549  1  0.78286000  0.10770000  0.66403000  1
  C  C550  1  0.78286000  0.89230000  0.16403000  1
  C  C551  1  0.78286000  0.89230000  0.83597000  1
  C  C552  1  0.78796000  0.10006000  0.17894000  1
  C  C553  1  0.78796000  0.10006000  0.82106000  1
  C  C554  1  0.78796000  0.89994000  0.32106000  1
  C  C555  1  0.78796000  0.89994000  0.67894000  1
  C  C556  1  0.79732000  0.17924000  0.29758000  1
  C  C557  1  0.79732000  0.17924000  0.70242000  1
  C  C558  1  0.79732000  0.82076000  0.20242000  1
  C  C559  1  0.79732000  0.82076000  0.79758000  1
  C  C560  1  0.80815000  0.34967000  0.46021000  1
  C  C561  1  0.80815000  0.34967000  0.53979000  1
  C  C562  1  0.80815000  0.65033000  0.03979000  1
  C  C563  1  0.80815000  0.65033000  0.96021000  1
  C  C564  1  0.81328000  0.32011000  0.07430000  1
  C  C565  1  0.81328000  0.32011000  0.92570000  1
  C  C566  1  0.81328000  0.67989000  0.42570000  1
  C  C567  1  0.81328000  0.67989000  0.57430000  1
  C  C568  1  0.81352000  0.41713000  0.41907000  1
  C  C569  1  0.81352000  0.41713000  0.58093000  1
  C  C570  1  0.81352000  0.58287000  0.08093000  1
  C  C571  1  0.81352000  0.58287000  0.91907000  1
  C  C572  1  0.81582000  0.40184000  0.10495000  1
  C  C573  1  0.81582000  0.40184000  0.89505000  1
  C  C574  1  0.81582000  0.59816000  0.39505000  1
  C  C575  1  0.81582000  0.59816000  0.60495000  1
  C  C576  1  0.81744000  0.15316000  0.32207000  1
  C  C577  1  0.81744000  0.15316000  0.67793000  1
  C  C578  1  0.81744000  0.84684000  0.17793000  1
  C  C579  1  0.81744000  0.84684000  0.82207000  1
  C  C580  1  0.82076000  0.20268000  0.20242000  1
  C  C581  1  0.82076000  0.20268000  0.79758000  1
  C  C582  1  0.82076000  0.79732000  0.29758000  1
  C  C583  1  0.82076000  0.79732000  0.70242000  1
  C  C584  1  0.82938000  0.22139000  0.28494000  1
  C  C585  1  0.82938000  0.22139000  0.71506000  1
  C  C586  1  0.82938000  0.77861000  0.21506000  1
  C  C587  1  0.82938000  0.77861000  0.78494000  1
  C  C588  1  0.83084000  0.13140000  0.16646000  1
  C  C589  1  0.83084000  0.13140000  0.83354000  1
  C  C590  1  0.83084000  0.86860000  0.33354000  1
  C  C591  1  0.83084000  0.86860000  0.66646000  1
  C  C592  1  0.83700000  0.34866000  0.09673000  1
  C  C593  1  0.83700000  0.34866000  0.90327000  1
  C  C594  1  0.83700000  0.65134000  0.40327000  1
  C  C595  1  0.83700000  0.65134000  0.59673000  1
  C  C596  1  0.83713000  0.37127000  0.43361000  1
  C  C597  1  0.83713000  0.37127000  0.56639000  1
  C  C598  1  0.83713000  0.62873000  0.06639000  1
  C  C599  1  0.83713000  0.62873000  0.93361000  1
  C  C600  1  0.83914000  0.43482000  0.39383000  1
  C  C601  1  0.83914000  0.43482000  0.60617000  1
  C  C602  1  0.83914000  0.56518000  0.10617000  1
  C  C603  1  0.83914000  0.56518000  0.89383000  1
  C  C604  1  0.84684000  0.18256000  0.17793000  1
  C  C605  1  0.84684000  0.18256000  0.82207000  1
  C  C606  1  0.84684000  0.81744000  0.32207000  1
  C  C607  1  0.84684000  0.81744000  0.67793000  1
  C  C608  1  0.86860000  0.16916000  0.33354000  1
  C  C609  1  0.86860000  0.16916000  0.66646000  1
  C  C610  1  0.86860000  0.83084000  0.16646000  1
  C  C611  1  0.86860000  0.83084000  0.83354000  1
  C  C612  1  0.88020000  0.23773000  0.29654000  1
  C  C613  1  0.88020000  0.23773000  0.70346000  1
  C  C614  1  0.88020000  0.76227000  0.20346000  1
  C  C615  1  0.88020000  0.76227000  0.79654000  1
  C  C616  1  0.88518000  0.34454000  0.42351000  1
  C  C617  1  0.88518000  0.34454000  0.57649000  1
  C  C618  1  0.88518000  0.65546000  0.07649000  1
  C  C619  1  0.88518000  0.65546000  0.92351000  1
  C  C620  1  0.88577000  0.32372000  0.11264000  1
  C  C621  1  0.88577000  0.32372000  0.88736000  1
  C  C622  1  0.88577000  0.67628000  0.38736000  1
  C  C623  1  0.88577000  0.67628000  0.61264000  1
  C  C624  1  0.88704000  0.40851000  0.38410000  1
  C  C625  1  0.88704000  0.40851000  0.61590000  1
  C  C626  1  0.88704000  0.59149000  0.11590000  1
  C  C627  1  0.88704000  0.59149000  0.88410000  1
  C  C628  1  0.89230000  0.21714000  0.16403000  1
  C  C629  1  0.89230000  0.21714000  0.83597000  1
  C  C630  1  0.89230000  0.78286000  0.33597000  1
  C  C631  1  0.89230000  0.78286000  0.66403000  1
  C  C632  1  0.89994000  0.21204000  0.32106000  1
  C  C633  1  0.89994000  0.21204000  0.67894000  1
  C  C634  1  0.89994000  0.78796000  0.17894000  1
  C  C635  1  0.89994000  0.78796000  0.82106000  1
  C  C636  1  0.90983000  0.36301000  0.39878000  1
  C  C637  1  0.90983000  0.36301000  0.60122000  1
  C  C638  1  0.90983000  0.63699000  0.10122000  1
  C  C639  1  0.90983000  0.63699000  0.89878000  1
  C  C640  1  0.95335000  0.23260000  0.33498000  1
  C  C641  1  0.95335000  0.23260000  0.66502000  1
  C  C642  1  0.95335000  0.76740000  0.16502000  1
  C  C643  1  0.95335000  0.76740000  0.83498000  1
  C  C644  1  0.95982000  0.33227000  0.38607000  1
  C  C645  1  0.95982000  0.33227000  0.61393000  1
  C  C646  1  0.95982000  0.66773000  0.11393000  1
  C  C647  1  0.95982000  0.66773000  0.88607000  1
  O  O648  1  0.01952000  0.27091000  0.17752000  1
  O  O649  1  0.01952000  0.27091000  0.82248000  1
  O  O650  1  0.01952000  0.72909000  0.32248000  1
  O  O651  1  0.01952000  0.72909000  0.67752000  1
  O  O652  1  0.02035000  0.35120000  0.13676000  1
  O  O653  1  0.02035000  0.35120000  0.86324000  1
  O  O654  1  0.02035000  0.64880000  0.36324000  1
  O  O655  1  0.02035000  0.64880000  0.63676000  1
  O  O656  1  0.02203000  0.29007000  0.10041000  1
  O  O657  1  0.02203000  0.29007000  0.89959000  1
  O  O658  1  0.02203000  0.70993000  0.39959000  1
  O  O659  1  0.02203000  0.70993000  0.60041000  1
  O  O660  1  0.03350000  0.21043000  0.14180000  1
  O  O661  1  0.03350000  0.21043000  0.85820000  1
  O  O662  1  0.03350000  0.78957000  0.35820000  1
  O  O663  1  0.03350000  0.78957000  0.64180000  1
  O  O664  1  0.08340000  0.19567000  0.35695000  1
  O  O665  1  0.08340000  0.19567000  0.64305000  1
  O  O666  1  0.08340000  0.80433000  0.14305000  1
  O  O667  1  0.08340000  0.80433000  0.85695000  1
  O  O668  1  0.09476000  0.27799000  0.39714000  1
  O  O669  1  0.09476000  0.27799000  0.60286000  1
  O  O670  1  0.09476000  0.72201000  0.10286000  1
  O  O671  1  0.09476000  0.72201000  0.89714000  1
  O  O672  1  0.09742000  0.34924000  0.36581000  1
  O  O673  1  0.09742000  0.34924000  0.63419000  1
  O  O674  1  0.09742000  0.65076000  0.13419000  1
  O  O675  1  0.09742000  0.65076000  0.86581000  1
  O  O676  1  0.09775000  0.26529000  0.32544000  1
  O  O677  1  0.09775000  0.26529000  0.67456000  1
  O  O678  1  0.09775000  0.73471000  0.17456000  1
  O  O679  1  0.09775000  0.73471000  0.82544000  1
  O  O680  1  0.17248000  0.30519000  0.02984000  1
  O  O681  1  0.17248000  0.30519000  0.97016000  1
  O  O682  1  0.17248000  0.69481000  0.47016000  1
  O  O683  1  0.17248000  0.69481000  0.52984000  1
  O  O684  1  0.18028000  0.47907000  0.12222000  1
  O  O685  1  0.18028000  0.47907000  0.87778000  1
  O  O686  1  0.18028000  0.52093000  0.37778000  1
  O  O687  1  0.18028000  0.52093000  0.62222000  1
  O  O688  1  0.18615000  0.25063000  0.23897000  1
  O  O689  1  0.18615000  0.25063000  0.76103000  1
  O  O690  1  0.18615000  0.74937000  0.26103000  1
  O  O691  1  0.18615000  0.74937000  0.73897000  1
  O  O692  1  0.19567000  0.08340000  0.14305000  1
  O  O693  1  0.19567000  0.08340000  0.85695000  1
  O  O694  1  0.19567000  0.91660000  0.35695000  1
  O  O695  1  0.19567000  0.91660000  0.64305000  1
  O  O696  1  0.21043000  0.03350000  0.35820000  1
  O  O697  1  0.21043000  0.03350000  0.64180000  1
  O  O698  1  0.21043000  0.96650000  0.14180000  1
  O  O699  1  0.21043000  0.96650000  0.85820000  1
  O  O700  1  0.23241000  0.37796000  0.03066000  1
  O  O701  1  0.23241000  0.37796000  0.96934000  1
  O  O702  1  0.23241000  0.62204000  0.46934000  1
  O  O703  1  0.23241000  0.62204000  0.53066000  1
  O  O704  1  0.23625000  0.26493000  0.47079000  1
  O  O705  1  0.23625000  0.26493000  0.52921000  1
  O  O706  1  0.23625000  0.73507000  0.02921000  1
  O  O707  1  0.23625000  0.73507000  0.97079000  1
  O  O708  1  0.25063000  0.18615000  0.26103000  1
  O  O709  1  0.25063000  0.18615000  0.73897000  1
  O  O710  1  0.25063000  0.81385000  0.23897000  1
  O  O711  1  0.25063000  0.81385000  0.76103000  1
  O  O712  1  0.25161000  0.47756000  0.40522000  1
  O  O713  1  0.25161000  0.47756000  0.59478000  1
  O  O714  1  0.25161000  0.52244000  0.09478000  1
  O  O715  1  0.25161000  0.52244000  0.90522000  1
  O  O716  1  0.26493000  0.23625000  0.02921000  1
  O  O717  1  0.26493000  0.23625000  0.97079000  1
  O  O718  1  0.26493000  0.76375000  0.47079000  1
  O  O719  1  0.26493000  0.76375000  0.52921000  1
  O  O720  1  0.26529000  0.09775000  0.17456000  1
  O  O721  1  0.26529000  0.09775000  0.82544000  1
  O  O722  1  0.26529000  0.90225000  0.32544000  1
  O  O723  1  0.26529000  0.90225000  0.67456000  1
  O  O724  1  0.27091000  0.01952000  0.32248000  1
  O  O725  1  0.27091000  0.01952000  0.67752000  1
  O  O726  1  0.27091000  0.98048000  0.17752000  1
  O  O727  1  0.27091000  0.98048000  0.82248000  1
  O  O728  1  0.27799000  0.09476000  0.10286000  1
  O  O729  1  0.27799000  0.09476000  0.89714000  1
  O  O730  1  0.27799000  0.90524000  0.39714000  1
  O  O731  1  0.27799000  0.90524000  0.60286000  1
  O  O732  1  0.29007000  0.02203000  0.39959000  1
  O  O733  1  0.29007000  0.02203000  0.60041000  1
  O  O734  1  0.29007000  0.97797000  0.10041000  1
  O  O735  1  0.29007000  0.97797000  0.89959000  1
  O  O736  1  0.30519000  0.17248000  0.47016000  1
  O  O737  1  0.30519000  0.17248000  0.52984000  1
  O  O738  1  0.30519000  0.82752000  0.02984000  1
  O  O739  1  0.30519000  0.82752000  0.97016000  1
  O  O740  1  0.30935000  0.32543000  0.47147000  1
  O  O741  1  0.30935000  0.32543000  0.52853000  1
  O  O742  1  0.30935000  0.67457000  0.02853000  1
  O  O743  1  0.30935000  0.67457000  0.97147000  1
  O  O744  1  0.32543000  0.30935000  0.02853000  1
  O  O745  1  0.32543000  0.30935000  0.97147000  1
  O  O746  1  0.32543000  0.69065000  0.47147000  1
  O  O747  1  0.32543000  0.69065000  0.52853000  1
  O  O748  1  0.34924000  0.09742000  0.13419000  1
  O  O749  1  0.34924000  0.09742000  0.86581000  1
  O  O750  1  0.34924000  0.90258000  0.36581000  1
  O  O751  1  0.34924000  0.90258000  0.63419000  1
  O  O752  1  0.35120000  0.02035000  0.36324000  1
  O  O753  1  0.35120000  0.02035000  0.63676000  1
  O  O754  1  0.35120000  0.97965000  0.13676000  1
  O  O755  1  0.35120000  0.97965000  0.86324000  1
  O  O756  1  0.37796000  0.23241000  0.46934000  1
  O  O757  1  0.37796000  0.23241000  0.53066000  1
  O  O758  1  0.37796000  0.76759000  0.03066000  1
  O  O759  1  0.37796000  0.76759000  0.96934000  1
  O  O760  1  0.47756000  0.25161000  0.09478000  1
  O  O761  1  0.47756000  0.25161000  0.90522000  1
  O  O762  1  0.47756000  0.74839000  0.40522000  1
  O  O763  1  0.47756000  0.74839000  0.59478000  1
  O  O764  1  0.47907000  0.18028000  0.37778000  1
  O  O765  1  0.47907000  0.18028000  0.62222000  1
  O  O766  1  0.47907000  0.81972000  0.12222000  1
  O  O767  1  0.47907000  0.81972000  0.87778000  1
  O  O768  1  0.52093000  0.18028000  0.12222000  1
  O  O769  1  0.52093000  0.18028000  0.87778000  1
  O  O770  1  0.52093000  0.81972000  0.37778000  1
  O  O771  1  0.52093000  0.81972000  0.62222000  1
  O  O772  1  0.52244000  0.25161000  0.40522000  1
  O  O773  1  0.52244000  0.25161000  0.59478000  1
  O  O774  1  0.52244000  0.74839000  0.09478000  1
  O  O775  1  0.52244000  0.74839000  0.90522000  1
  O  O776  1  0.62204000  0.23241000  0.03066000  1
  O  O777  1  0.62204000  0.23241000  0.96934000  1
  O  O778  1  0.62204000  0.76759000  0.46934000  1
  O  O779  1  0.62204000  0.76759000  0.53066000  1
  O  O780  1  0.64880000  0.02035000  0.13676000  1
  O  O781  1  0.64880000  0.02035000  0.86324000  1
  O  O782  1  0.64880000  0.97965000  0.36324000  1
  O  O783  1  0.64880000  0.97965000  0.63676000  1
  O  O784  1  0.65076000  0.09742000  0.36581000  1
  O  O785  1  0.65076000  0.09742000  0.63419000  1
  O  O786  1  0.65076000  0.90258000  0.13419000  1
  O  O787  1  0.65076000  0.90258000  0.86581000  1
  O  O788  1  0.67457000  0.30935000  0.47147000  1
  O  O789  1  0.67457000  0.30935000  0.52853000  1
  O  O790  1  0.67457000  0.69065000  0.02853000  1
  O  O791  1  0.67457000  0.69065000  0.97147000  1
  O  O792  1  0.69065000  0.32543000  0.02853000  1
  O  O793  1  0.69065000  0.32543000  0.97147000  1
  O  O794  1  0.69065000  0.67457000  0.47147000  1
  O  O795  1  0.69065000  0.67457000  0.52853000  1
  O  O796  1  0.69481000  0.17248000  0.02984000  1
  O  O797  1  0.69481000  0.17248000  0.97016000  1
  O  O798  1  0.69481000  0.82752000  0.47016000  1
  O  O799  1  0.69481000  0.82752000  0.52984000  1
  O  O800  1  0.70993000  0.02203000  0.10041000  1
  O  O801  1  0.70993000  0.02203000  0.89959000  1
  O  O802  1  0.70993000  0.97797000  0.39959000  1
  O  O803  1  0.70993000  0.97797000  0.60041000  1
  O  O804  1  0.72201000  0.09476000  0.39714000  1
  O  O805  1  0.72201000  0.09476000  0.60286000  1
  O  O806  1  0.72201000  0.90524000  0.10286000  1
  O  O807  1  0.72201000  0.90524000  0.89714000  1
  O  O808  1  0.72909000  0.01952000  0.17752000  1
  O  O809  1  0.72909000  0.01952000  0.82248000  1
  O  O810  1  0.72909000  0.98048000  0.32248000  1
  O  O811  1  0.72909000  0.98048000  0.67752000  1
  O  O812  1  0.73471000  0.09775000  0.32544000  1
  O  O813  1  0.73471000  0.09775000  0.67456000  1
  O  O814  1  0.73471000  0.90225000  0.17456000  1
  O  O815  1  0.73471000  0.90225000  0.82544000  1
  O  O816  1  0.73507000  0.23625000  0.47079000  1
  O  O817  1  0.73507000  0.23625000  0.52921000  1
  O  O818  1  0.73507000  0.76375000  0.02921000  1
  O  O819  1  0.73507000  0.76375000  0.97079000  1
  O  O820  1  0.74839000  0.47756000  0.09478000  1
  O  O821  1  0.74839000  0.47756000  0.90522000  1
  O  O822  1  0.74839000  0.52244000  0.40522000  1
  O  O823  1  0.74839000  0.52244000  0.59478000  1
  O  O824  1  0.74937000  0.18615000  0.23897000  1
  O  O825  1  0.74937000  0.18615000  0.76103000  1
  O  O826  1  0.74937000  0.81385000  0.26103000  1
  O  O827  1  0.74937000  0.81385000  0.73897000  1
  O  O828  1  0.76375000  0.26493000  0.02921000  1
  O  O829  1  0.76375000  0.26493000  0.97079000  1
  O  O830  1  0.76375000  0.73507000  0.47079000  1
  O  O831  1  0.76375000  0.73507000  0.52921000  1
  O  O832  1  0.76759000  0.37796000  0.46934000  1
  O  O833  1  0.76759000  0.37796000  0.53066000  1
  O  O834  1  0.76759000  0.62204000  0.03066000  1
  O  O835  1  0.76759000  0.62204000  0.96934000  1
  O  O836  1  0.78957000  0.03350000  0.14180000  1
  O  O837  1  0.78957000  0.03350000  0.85820000  1
  O  O838  1  0.78957000  0.96650000  0.35820000  1
  O  O839  1  0.78957000  0.96650000  0.64180000  1
  O  O840  1  0.80433000  0.08340000  0.35695000  1
  O  O841  1  0.80433000  0.08340000  0.64305000  1
  O  O842  1  0.80433000  0.91660000  0.14305000  1
  O  O843  1  0.80433000  0.91660000  0.85695000  1
  O  O844  1  0.81385000  0.25063000  0.26103000  1
  O  O845  1  0.81385000  0.25063000  0.73897000  1
  O  O846  1  0.81385000  0.74937000  0.23897000  1
  O  O847  1  0.81385000  0.74937000  0.76103000  1
  O  O848  1  0.81972000  0.47907000  0.37778000  1
  O  O849  1  0.81972000  0.47907000  0.62222000  1
  O  O850  1  0.81972000  0.52093000  0.12222000  1
  O  O851  1  0.81972000  0.52093000  0.87778000  1
  O  O852  1  0.82752000  0.30519000  0.47016000  1
  O  O853  1  0.82752000  0.30519000  0.52984000  1
  O  O854  1  0.82752000  0.69481000  0.02984000  1
  O  O855  1  0.82752000  0.69481000  0.97016000  1
  O  O856  1  0.90225000  0.26529000  0.17456000  1
  O  O857  1  0.90225000  0.26529000  0.82544000  1
  O  O858  1  0.90225000  0.73471000  0.32544000  1
  O  O859  1  0.90225000  0.73471000  0.67456000  1
  O  O860  1  0.90258000  0.34924000  0.13419000  1
  O  O861  1  0.90258000  0.34924000  0.86581000  1
  O  O862  1  0.90258000  0.65076000  0.36581000  1
  O  O863  1  0.90258000  0.65076000  0.63419000  1
  O  O864  1  0.90524000  0.27799000  0.10286000  1
  O  O865  1  0.90524000  0.27799000  0.89714000  1
  O  O866  1  0.90524000  0.72201000  0.39714000  1
  O  O867  1  0.90524000  0.72201000  0.60286000  1
  O  O868  1  0.91660000  0.19567000  0.14305000  1
  O  O869  1  0.91660000  0.19567000  0.85695000  1
  O  O870  1  0.91660000  0.80433000  0.35695000  1
  O  O871  1  0.91660000  0.80433000  0.64305000  1
  O  O872  1  0.96650000  0.21043000  0.35820000  1
  O  O873  1  0.96650000  0.21043000  0.64180000  1
  O  O874  1  0.96650000  0.78957000  0.14180000  1
  O  O875  1  0.96650000  0.78957000  0.85820000  1
  O  O876  1  0.97797000  0.29007000  0.39959000  1
  O  O877  1  0.97797000  0.29007000  0.60041000  1
  O  O878  1  0.97797000  0.70993000  0.10041000  1
  O  O879  1  0.97797000  0.70993000  0.89959000  1
  O  O880  1  0.97965000  0.35120000  0.36324000  1
  O  O881  1  0.97965000  0.35120000  0.63676000  1
  O  O882  1  0.97965000  0.64880000  0.13676000  1
  O  O883  1  0.97965000  0.64880000  0.86324000  1
  O  O884  1  0.98048000  0.27091000  0.32248000  1
  O  O885  1  0.98048000  0.27091000  0.67752000  1
  O  O886  1  0.98048000  0.72909000  0.17752000  1
  O  O887  1  0.98048000  0.72909000  0.82248000  1
