# generated using pymatgen
data_Al2H5C5O8
_symmetry_space_group_name_H-M   'P 1'
_cell_length_a   6.99410000
_cell_length_b   7.48900000
_cell_length_c   11.14610000
_cell_angle_alpha   107.82200000
_cell_angle_beta   106.36400000
_cell_angle_gamma   95.46640000
_symmetry_Int_Tables_number   1
_chemical_formula_structural   Al2H5C5O8
_chemical_formula_sum   'Al4 H10 C10 O16'
_cell_volume   522.65591658
_cell_formula_units_Z   2
loop_
 _symmetry_equiv_pos_site_id
 _symmetry_equiv_pos_as_xyz
  1  'x, y, z'
loop_
 _atom_site_type_symbol
 _atom_site_label
 _atom_site_symmetry_multiplicity
 _atom_site_fract_x
 _atom_site_fract_y
 _atom_site_fract_z
 _atom_site_occupancy
  Al  Al0  1  0.00000000  0.50000000  0.50000000  1
  Al  Al1  1  0.29518000  0.29518000  0.59036000  1
  Al  Al2  1  0.50000000  0.00000000  0.50000000  1
  Al  Al3  1  0.70482000  0.70482000  0.40964000  1
  H  H4  1  0.00600000  0.69000000  0.35200000  1
  H  H5  1  0.14200000  0.97300000  0.47800000  1
  H  H6  1  0.33600000  0.50500000  0.47800000  1
  H  H7  1  0.34600000  0.66200000  0.35200000  1
  H  H8  1  0.44810000  0.68790000  0.00000000  1
  H  H9  1  0.55190000  0.31210000  0.00000000  1
  H  H10  1  0.65400000  0.33800000  0.64800000  1
  H  H11  1  0.66400000  0.49500000  0.52200000  1
  H  H12  1  0.85800000  0.02700000  0.52200000  1
  H  H13  1  0.99400000  0.31000000  0.64800000  1
  C  C14  1  0.32460000  0.68190000  0.75140000  1
  C  C15  1  0.42460000  0.84650000  0.88040000  1
  C  C16  1  0.42680000  0.06950000  0.75140000  1
  C  C17  1  0.45580000  0.03390000  0.88040000  1
  C  C18  1  0.46930000  0.81510000  0.00000000  1
  C  C19  1  0.53070000  0.18490000  0.00000000  1
  C  C20  1  0.54420000  0.96610000  0.11960000  1
  C  C21  1  0.57320000  0.93050000  0.24860000  1
  C  C22  1  0.57540000  0.15350000  0.11960000  1
  C  C23  1  0.67540000  0.31810000  0.24860000  1
  O  O24  1  0.02770000  0.31620000  0.58360000  1
  O  O25  1  0.16600000  0.69920000  0.66940000  1
  O  O26  1  0.23150000  0.42450000  0.46700000  1
  O  O27  1  0.23550000  0.04250000  0.46700000  1
  O  O28  1  0.32790000  0.19900000  0.73560000  1
  O  O29  1  0.40770000  0.53660000  0.73560000  1
  O  O30  1  0.44410000  0.73260000  0.41640000  1
  O  O31  1  0.49660000  0.02980000  0.33060000  1
  O  O32  1  0.50340000  0.97020000  0.66940000  1
  O  O33  1  0.55590000  0.26740000  0.58360000  1
  O  O34  1  0.59230000  0.46340000  0.26440000  1
  O  O35  1  0.67210000  0.80100000  0.26440000  1
  O  O36  1  0.76450000  0.95750000  0.53300000  1
  O  O37  1  0.76850000  0.57550000  0.53300000  1
  O  O38  1  0.83400000  0.30080000  0.33060000  1
  O  O39  1  0.97230000  0.68380000  0.41640000  1
