# generated using pymatgen
data_Ca3H18C22(SO7)2
_symmetry_space_group_name_H-M   'P 1'
_cell_length_a   10.33220000
_cell_length_b   10.33220000
_cell_length_c   18.98100000
_cell_angle_alpha   81.09000000
_cell_angle_beta   81.09000000
_cell_angle_gamma   82.41010000
_symmetry_Int_Tables_number   1
_chemical_formula_structural   Ca3H18C22(SO7)2
_chemical_formula_sum   'Ca6 H36 C44 S4 O28'
_cell_volume   1965.52992968
_cell_formula_units_Z   2
loop_
 _symmetry_equiv_pos_site_id
 _symmetry_equiv_pos_as_xyz
  1  'x, y, z'
loop_
 _atom_site_type_symbol
 _atom_site_label
 _atom_site_symmetry_multiplicity
 _atom_site_fract_x
 _atom_site_fract_y
 _atom_site_fract_z
 _atom_site_occupancy
  Ca  Ca0  1  0.14765000  0.92323000  0.93405000  1
  Ca  Ca1  1  0.07677000  0.85235000  0.56595000  1
  Ca  Ca2  1  0.19807000  0.80193000  0.75000000  1
  Ca  Ca3  1  0.80193000  0.19807000  0.25000000  1
  Ca  Ca4  1  0.92323000  0.14765000  0.43405000  1
  Ca  Ca5  1  0.85235000  0.07677000  0.06595000  1
  H  H6  1  0.55390000  0.99990000  0.30620000  1
  H  H7  1  0.91990000  0.92730000  0.82200000  1
  H  H8  1  0.92730000  0.91990000  0.32200000  1
  H  H9  1  0.47310000  0.91950000  0.37130000  1
  H  H10  1  0.55990000  0.88390000  0.93480000  1
  H  H11  1  0.61980000  0.86840000  0.34520000  1
  H  H12  1  0.59610000  0.86310000  0.57550000  1
  H  H13  1  0.63590000  0.81890000  0.72860000  1
  H  H14  1  0.50620000  0.77960000  0.63470000  1
  H  H15  1  0.50020000  0.77620000  0.55300000  1
  H  H16  1  0.81890000  0.63590000  0.22860000  1
  H  H17  1  0.86840000  0.61980000  0.84520000  1
  H  H18  1  0.86310000  0.59610000  0.07550000  1
  H  H19  1  0.88390000  0.55990000  0.43480000  1
  H  H20  1  0.99990000  0.55390000  0.80620000  1
  H  H21  1  0.08050000  0.52690000  0.12870000  1
  H  H22  1  0.77960000  0.50620000  0.13470000  1
  H  H23  1  0.77620000  0.50020000  0.05300000  1
  H  H24  1  0.22380000  0.49980000  0.94700000  1
  H  H25  1  0.22040000  0.49380000  0.86530000  1
  H  H26  1  0.91950000  0.47310000  0.87130000  1
  H  H27  1  0.00010000  0.44610000  0.19380000  1
  H  H28  1  0.11610000  0.44010000  0.56520000  1
  H  H29  1  0.13690000  0.40390000  0.92450000  1
  H  H30  1  0.13160000  0.38020000  0.15480000  1
  H  H31  1  0.18110000  0.36410000  0.77140000  1
  H  H32  1  0.49980000  0.22380000  0.44700000  1
  H  H33  1  0.49380000  0.22040000  0.36530000  1
  H  H34  1  0.36410000  0.18110000  0.27140000  1
  H  H35  1  0.40390000  0.13690000  0.42450000  1
  H  H36  1  0.38020000  0.13160000  0.65480000  1
  H  H37  1  0.44010000  0.11610000  0.06520000  1
  H  H38  1  0.52690000  0.08050000  0.62870000  1
  H  H39  1  0.07270000  0.08010000  0.67800000  1
  H  H40  1  0.08010000  0.07270000  0.17800000  1
  H  H41  1  0.44610000  0.00010000  0.69380000  1
  C  C42  1  0.79330000  0.94890000  0.95390000  1
  C  C43  1  0.55880000  0.94540000  0.35180000  1
  C  C44  1  0.74850000  0.91010000  0.88870000  1
  C  C45  1  0.83400000  0.90720000  0.82440000  1
  C  C46  1  0.87100000  0.88440000  0.19350000  1
  C  C47  1  0.61820000  0.88000000  0.89240000  1
  C  C48  1  0.79170000  0.87450000  0.76320000  1
  C  C49  1  0.88440000  0.87100000  0.69350000  1
  C  C50  1  0.57700000  0.84400000  0.83190000  1
  C  C51  1  0.66400000  0.84240000  0.76870000  1
  C  C52  1  0.90720000  0.83400000  0.32440000  1
  C  C53  1  0.51150000  0.83070000  0.58770000  1
  C  C54  1  0.43640000  0.81420000  0.83540000  1
  C  C55  1  0.94890000  0.79330000  0.45390000  1
  C  C56  1  0.87450000  0.79170000  0.26320000  1
  C  C57  1  0.91010000  0.74850000  0.38870000  1
  C  C58  1  0.84240000  0.66400000  0.26870000  1
  C  C59  1  0.88000000  0.61820000  0.39240000  1
  C  C60  1  0.84400000  0.57700000  0.33190000  1
  C  C61  1  0.18580000  0.56360000  0.66460000  1
  C  C62  1  0.94540000  0.55880000  0.85180000  1
  C  C63  1  0.83070000  0.51150000  0.08770000  1
  C  C64  1  0.16930000  0.48850000  0.91230000  1
  C  C65  1  0.05460000  0.44120000  0.14820000  1
  C  C66  1  0.81420000  0.43640000  0.33540000  1
  C  C67  1  0.15600000  0.42300000  0.66810000  1
  C  C68  1  0.12000000  0.38180000  0.60760000  1
  C  C69  1  0.15760000  0.33600000  0.73130000  1
  C  C70  1  0.08990000  0.25150000  0.61130000  1
  C  C71  1  0.12550000  0.20830000  0.73680000  1
  C  C72  1  0.05110000  0.20670000  0.54610000  1
  C  C73  1  0.56360000  0.18580000  0.16460000  1
  C  C74  1  0.48850000  0.16930000  0.41230000  1
  C  C75  1  0.09280000  0.16600000  0.67560000  1
  C  C76  1  0.33600000  0.15760000  0.23130000  1
  C  C77  1  0.42300000  0.15600000  0.16810000  1
  C  C78  1  0.11560000  0.12900000  0.30650000  1
  C  C79  1  0.20830000  0.12550000  0.23680000  1
  C  C80  1  0.38180000  0.12000000  0.10760000  1
  C  C81  1  0.12900000  0.11560000  0.80650000  1
  C  C82  1  0.16600000  0.09280000  0.17560000  1
  C  C83  1  0.25150000  0.08990000  0.11130000  1
  C  C84  1  0.44120000  0.05460000  0.64820000  1
  C  C85  1  0.20670000  0.05110000  0.04610000  1
  S  S86  1  0.38670000  0.96456000  0.58782000  1
  S  S87  1  0.03544000  0.61330000  0.91218000  1
  S  S88  1  0.96456000  0.38670000  0.08782000  1
  S  S89  1  0.61330000  0.03544000  0.41218000  1
  O  O90  1  0.15060000  0.99300000  0.80302000  1
  O  O91  1  0.70840000  0.97780000  0.00500000  1
  O  O92  1  0.91510000  0.95290000  0.95426000  1
  O  O93  1  0.95290000  0.91510000  0.45426000  1
  O  O94  1  0.26500000  0.90460000  0.62915000  1
  O  O95  1  0.84000000  0.88740000  0.63441000  1
  O  O96  1  0.00700000  0.84940000  0.69698000  1
  O  O97  1  0.88740000  0.84000000  0.13441000  1
  O  O98  1  0.35880000  0.82340000  0.89210000  1
  O  O99  1  0.40760000  0.78260000  0.77820000  1
  O  O100  1  0.09540000  0.73500000  0.87085000  1
  O  O101  1  0.97780000  0.70840000  0.50500000  1
  O  O102  1  0.17660000  0.64120000  0.60790000  1
  O  O103  1  0.21740000  0.59240000  0.72180000  1
  O  O104  1  0.78260000  0.40760000  0.27820000  1
  O  O105  1  0.82340000  0.35880000  0.39210000  1
  O  O106  1  0.02220000  0.29160000  0.49500000  1
  O  O107  1  0.90460000  0.26500000  0.12915000  1
  O  O108  1  0.59240000  0.21740000  0.22180000  1
  O  O109  1  0.64120000  0.17660000  0.10790000  1
  O  O110  1  0.11260000  0.16000000  0.86559000  1
  O  O111  1  0.99300000  0.15060000  0.30302000  1
  O  O112  1  0.16000000  0.11260000  0.36559000  1
  O  O113  1  0.73500000  0.09540000  0.37085000  1
  O  O114  1  0.04710000  0.08490000  0.54574000  1
  O  O115  1  0.08490000  0.04710000  0.04574000  1
  O  O116  1  0.29160000  0.02220000  0.99500000  1
  O  O117  1  0.84940000  0.00700000  0.19698000  1
