# generated using pymatgen
data_Sm2Zn2H15C40(BrO4)5
_symmetry_space_group_name_H-M   'P 1'
_cell_length_a   12.20690000
_cell_length_b   14.48110000
_cell_length_c   28.55000000
_cell_angle_alpha   90.00000000
_cell_angle_beta   90.00000000
_cell_angle_gamma   90.00000000
_symmetry_Int_Tables_number   1
_chemical_formula_structural   Sm2Zn2H15C40(BrO4)5
_chemical_formula_sum   'Sm8 Zn8 H60 C160 Br20 O80'
_cell_volume   5046.76464529
_cell_formula_units_Z   4
loop_
 _symmetry_equiv_pos_site_id
 _symmetry_equiv_pos_as_xyz
  1  'x, y, z'
loop_
 _atom_site_type_symbol
 _atom_site_label
 _atom_site_symmetry_multiplicity
 _atom_site_fract_x
 _atom_site_fract_y
 _atom_site_fract_z
 _atom_site_occupancy
  Sm  Sm0  1  0.11218000  0.97430000  0.70775000  1
  Sm  Sm1  1  0.11574000  0.00700000  0.10508000  1
  Sm  Sm2  1  0.38426000  0.50700000  0.10508000  1
  Sm  Sm3  1  0.38782000  0.47430000  0.70775000  1
  Sm  Sm4  1  0.61218000  0.52570000  0.20775000  1
  Sm  Sm5  1  0.61574000  0.49300000  0.60508000  1
  Sm  Sm6  1  0.88426000  0.99300000  0.60508000  1
  Sm  Sm7  1  0.88782000  0.02570000  0.20775000  1
  Zn  Zn8  1  0.16846000  0.31074000  0.04906000  1
  Zn  Zn9  1  0.17469000  0.27699000  0.76605000  1
  Zn  Zn10  1  0.32531000  0.77699000  0.76605000  1
  Zn  Zn11  1  0.33154000  0.81074000  0.04906000  1
  Zn  Zn12  1  0.66846000  0.18926000  0.54906000  1
  Zn  Zn13  1  0.67469000  0.22301000  0.26605000  1
  Zn  Zn14  1  0.82531000  0.72301000  0.26605000  1
  Zn  Zn15  1  0.83154000  0.68926000  0.54906000  1
  H  H16  1  0.00940000  0.01740000  0.47540000  1
  H  H17  1  0.01300000  0.03700000  0.33333333  1
  H  H18  1  0.05520000  0.66450000  0.66820000  1
  H  H19  1  0.05830000  0.69830000  0.14740000  1
  H  H20  1  0.06140000  0.22440000  0.27560000  1
  H  H21  1  0.07090000  0.54410000  0.02940000  1
  H  H22  1  0.07930000  0.18040000  0.53270000  1
  H  H23  1  0.07990000  0.49450000  0.78170000  1
  H  H24  1  0.17660000  0.86350000  0.51070000  1
  H  H25  1  0.18280000  0.52290000  0.19430000  1
  H  H26  1  0.19200000  0.47750000  0.61580000  1
  H  H27  1  0.19920000  0.91490000  0.29790000  1
  H  H28  1  0.20360000  0.77060000  0.17720000  1
  H  H29  1  0.20700000  0.73950000  0.63870000  1
  H  H30  1  0.24270000  0.38450000  0.90670000  1
  H  H31  1  0.25730000  0.88450000  0.90670000  1
  H  H32  1  0.29300000  0.23950000  0.63870000  1
  H  H33  1  0.29640000  0.27060000  0.17720000  1
  H  H34  1  0.30080000  0.41490000  0.29790000  1
  H  H35  1  0.30800000  0.97750000  0.61580000  1
  H  H36  1  0.31720000  0.02290000  0.19430000  1
  H  H37  1  0.32340000  0.36350000  0.51070000  1
  H  H38  1  0.42010000  0.99450000  0.78170000  1
  H  H39  1  0.42070000  0.68040000  0.53270000  1
  H  H40  1  0.42910000  0.04410000  0.02940000  1
  H  H41  1  0.43860000  0.72440000  0.27560000  1
  H  H42  1  0.44170000  0.19830000  0.14740000  1
  H  H43  1  0.44480000  0.16450000  0.66820000  1
  H  H44  1  0.48700000  0.53700000  0.33333333  1
  H  H45  1  0.49060000  0.51740000  0.47540000  1
  H  H46  1  0.50940000  0.48260000  0.97540000  1
  H  H47  1  0.51300000  0.46300000  0.83330000  1
  H  H48  1  0.55520000  0.83550000  0.16820000  1
  H  H49  1  0.55830000  0.80170000  0.64740000  1
  H  H50  1  0.56140000  0.27560000  0.77560000  1
  H  H51  1  0.57090000  0.95590000  0.52940000  1
  H  H52  1  0.57930000  0.31960000  0.03270000  1
  H  H53  1  0.57990000  0.00550000  0.28170000  1
  H  H54  1  0.67660000  0.63650000  0.01070000  1
  H  H55  1  0.68280000  0.97710000  0.69430000  1
  H  H56  1  0.69200000  0.02250000  0.11580000  1
  H  H57  1  0.69920000  0.58510000  0.79790000  1
  H  H58  1  0.70360000  0.72940000  0.67720000  1
  H  H59  1  0.70700000  0.76050000  0.13870000  1
  H  H60  1  0.74270000  0.11550000  0.40670000  1
  H  H61  1  0.75730000  0.61550000  0.40670000  1
  H  H62  1  0.79300000  0.26050000  0.13870000  1
  H  H63  1  0.79640000  0.22940000  0.67720000  1
  H  H64  1  0.80080000  0.08510000  0.79790000  1
  H  H65  1  0.80800000  0.52250000  0.11580000  1
  H  H66  1  0.81720000  0.47710000  0.69430000  1
  H  H67  1  0.82340000  0.13650000  0.01070000  1
  H  H68  1  0.92010000  0.50550000  0.28170000  1
  H  H69  1  0.92070000  0.81960000  0.03270000  1
  H  H70  1  0.92910000  0.45590000  0.52940000  1
  H  H71  1  0.93860000  0.77560000  0.77560000  1
  H  H72  1  0.94170000  0.30170000  0.64740000  1
  H  H73  1  0.94480000  0.33550000  0.16820000  1
  H  H74  1  0.98700000  0.96300000  0.83330000  1
  H  H75  1  0.99060000  0.98260000  0.97540000  1
  C  C76  1  0.02300000  0.01940000  0.40480000  1
  C  C77  1  0.02470000  0.95520000  0.86210000  1
  C  C78  1  0.02700000  0.65340000  0.12710000  1
  C  C79  1  0.02750000  0.96730000  0.94720000  1
  C  C80  1  0.02780000  0.61470000  0.68640000  1
  C  C81  1  0.03360000  0.56270000  0.05700000  1
  C  C82  1  0.04140000  0.51590000  0.75490000  1
  C  C83  1  0.05890000  0.51990000  0.24300000  1
  C  C84  1  0.06710000  0.42880000  0.17420000  1
  C  C85  1  0.06760000  0.47500000  0.56710000  1
  C  C86  1  0.07590000  0.38700000  0.63840000  1
  C  C87  1  0.08190000  0.62740000  0.08650000  1
  C  C88  1  0.08430000  0.87040000  0.59290000  1
  C  C89  1  0.08460000  0.58420000  0.72650000  1
  C  C90  1  0.08910000  0.90520000  0.22020000  1
  C  C91  1  0.11480000  0.49520000  0.20230000  1
  C  C92  1  0.12310000  0.45060000  0.60850000  1
  C  C93  1  0.12370000  0.25760000  0.26500000  1
  C  C94  1  0.12370000  0.40230000  0.13010000  1
  C  C95  1  0.12400000  0.11820000  0.61610000  1
  C  C96  1  0.12700000  0.15460000  0.19590000  1
  C  C97  1  0.13070000  0.91770000  0.86380000  1
  C  C98  1  0.13130000  0.93190000  0.94850000  1
  C  C99  1  0.13370000  0.36240000  0.68340000  1
  C  C100  1  0.14220000  0.21170000  0.54420000  1
  C  C101  1  0.16810000  0.32980000  0.29110000  1
  C  C102  1  0.17540000  0.23540000  0.22160000  1
  C  C103  1  0.17920000  0.19500000  0.58860000  1
  C  C104  1  0.17970000  0.80900000  0.57680000  1
  C  C105  1  0.18250000  0.89150000  0.81720000  1
  C  C106  1  0.18450000  0.90770000  0.90610000  1
  C  C107  1  0.18530000  0.91940000  0.99570000  1
  C  C108  1  0.18750000  0.85310000  0.23420000  1
  C  C109  1  0.19180000  0.62880000  0.74150000  1
  C  C110  1  0.19250000  0.66630000  0.07500000  1
  C  C111  1  0.19630000  0.27410000  0.51620000  1
  C  C112  1  0.21410000  0.82230000  0.53100000  1
  C  C113  1  0.23070000  0.74690000  0.60730000  1
  C  C114  1  0.23400000  0.87240000  0.27740000  1
  C  C115  1  0.23460000  0.78430000  0.20700000  1
  C  C116  1  0.26540000  0.28430000  0.20700000  1
  C  C117  1  0.26600000  0.37240000  0.27740000  1
  C  C118  1  0.26930000  0.24690000  0.60730000  1
  C  C119  1  0.28590000  0.32230000  0.53100000  1
  C  C120  1  0.30370000  0.77410000  0.51620000  1
  C  C121  1  0.30750000  0.16630000  0.07500000  1
  C  C122  1  0.30820000  0.12880000  0.74150000  1
  C  C123  1  0.31250000  0.35310000  0.23420000  1
  C  C124  1  0.31470000  0.41940000  0.99570000  1
  C  C125  1  0.31550000  0.40770000  0.90610000  1
  C  C126  1  0.31750000  0.39150000  0.81720000  1
  C  C127  1  0.32030000  0.30900000  0.57680000  1
  C  C128  1  0.32080000  0.69500000  0.58860000  1
  C  C129  1  0.32460000  0.73540000  0.22160000  1
  C  C130  1  0.33190000  0.82980000  0.29110000  1
  C  C131  1  0.35780000  0.71170000  0.54420000  1
  C  C132  1  0.36630000  0.86240000  0.68340000  1
  C  C133  1  0.36870000  0.43190000  0.94850000  1
  C  C134  1  0.36930000  0.41770000  0.86380000  1
  C  C135  1  0.37300000  0.65460000  0.19590000  1
  C  C136  1  0.37600000  0.61820000  0.61610000  1
  C  C137  1  0.37630000  0.75760000  0.26500000  1
  C  C138  1  0.37630000  0.90230000  0.13010000  1
  C  C139  1  0.37690000  0.95060000  0.60850000  1
  C  C140  1  0.38520000  0.99520000  0.20230000  1
  C  C141  1  0.41090000  0.40520000  0.22020000  1
  C  C142  1  0.41540000  0.08420000  0.72650000  1
  C  C143  1  0.41570000  0.37040000  0.59290000  1
  C  C144  1  0.41810000  0.12740000  0.08650000  1
  C  C145  1  0.42410000  0.88700000  0.63840000  1
  C  C146  1  0.43240000  0.97500000  0.56710000  1
  C  C147  1  0.43290000  0.92880000  0.17420000  1
  C  C148  1  0.44110000  0.01990000  0.24300000  1
  C  C149  1  0.45860000  0.01590000  0.75490000  1
  C  C150  1  0.46640000  0.06270000  0.05700000  1
  C  C151  1  0.47220000  0.11470000  0.68640000  1
  C  C152  1  0.47250000  0.46730000  0.94720000  1
  C  C153  1  0.47300000  0.15340000  0.12710000  1
  C  C154  1  0.47530000  0.45520000  0.86210000  1
  C  C155  1  0.47700000  0.51940000  0.40480000  1
  C  C156  1  0.52300000  0.48060000  0.90480000  1
  C  C157  1  0.52470000  0.54480000  0.36210000  1
  C  C158  1  0.52700000  0.84660000  0.62710000  1
  C  C159  1  0.52750000  0.53270000  0.44720000  1
  C  C160  1  0.52780000  0.88530000  0.18640000  1
  C  C161  1  0.53360000  0.93730000  0.55700000  1
  C  C162  1  0.54140000  0.98410000  0.25490000  1
  C  C163  1  0.55890000  0.98010000  0.74300000  1
  C  C164  1  0.56710000  0.07120000  0.67420000  1
  C  C165  1  0.56760000  0.02500000  0.06710000  1
  C  C166  1  0.57590000  0.11300000  0.13840000  1
  C  C167  1  0.58190000  0.87260000  0.58650000  1
  C  C168  1  0.58430000  0.62960000  0.09290000  1
  C  C169  1  0.58460000  0.91580000  0.22650000  1
  C  C170  1  0.58910000  0.59480000  0.72020000  1
  C  C171  1  0.61480000  0.00480000  0.70230000  1
  C  C172  1  0.62310000  0.04940000  0.10850000  1
  C  C173  1  0.62370000  0.09770000  0.63010000  1
  C  C174  1  0.62370000  0.24240000  0.76500000  1
  C  C175  1  0.62400000  0.38180000  0.11610000  1
  C  C176  1  0.62700000  0.34540000  0.69590000  1
  C  C177  1  0.63070000  0.58230000  0.36380000  1
  C  C178  1  0.63130000  0.56810000  0.44850000  1
  C  C179  1  0.63370000  0.13760000  0.18340000  1
  C  C180  1  0.64220000  0.28830000  0.04420000  1
  C  C181  1  0.66810000  0.17020000  0.79110000  1
  C  C182  1  0.67540000  0.26460000  0.72160000  1
  C  C183  1  0.67920000  0.30500000  0.08860000  1
  C  C184  1  0.67970000  0.69100000  0.07680000  1
  C  C185  1  0.68250000  0.60850000  0.31720000  1
  C  C186  1  0.68450000  0.59230000  0.40610000  1
  C  C187  1  0.68530000  0.58060000  0.49570000  1
  C  C188  1  0.68750000  0.64690000  0.73420000  1
  C  C189  1  0.69180000  0.87120000  0.24150000  1
  C  C190  1  0.69250000  0.83370000  0.57500000  1
  C  C191  1  0.69630000  0.22590000  0.01620000  1
  C  C192  1  0.71410000  0.67770000  0.03100000  1
  C  C193  1  0.73070000  0.75310000  0.10730000  1
  C  C194  1  0.73400000  0.62760000  0.77740000  1
  C  C195  1  0.73460000  0.71570000  0.70700000  1
  C  C196  1  0.76540000  0.21570000  0.70700000  1
  C  C197  1  0.76600000  0.12760000  0.77740000  1
  C  C198  1  0.76930000  0.25310000  0.10730000  1
  C  C199  1  0.78590000  0.17770000  0.03100000  1
  C  C200  1  0.80370000  0.72590000  0.01620000  1
  C  C201  1  0.80750000  0.33370000  0.57500000  1
  C  C202  1  0.80820000  0.37120000  0.24150000  1
  C  C203  1  0.81250000  0.14690000  0.73420000  1
  C  C204  1  0.81470000  0.08060000  0.49570000  1
  C  C205  1  0.81550000  0.09230000  0.40610000  1
  C  C206  1  0.81750000  0.10850000  0.31720000  1
  C  C207  1  0.82030000  0.19100000  0.07680000  1
  C  C208  1  0.82080000  0.80500000  0.08860000  1
  C  C209  1  0.82460000  0.76460000  0.72160000  1
  C  C210  1  0.83190000  0.67020000  0.79110000  1
  C  C211  1  0.85780000  0.78830000  0.04420000  1
  C  C212  1  0.86630000  0.63760000  0.18340000  1
  C  C213  1  0.86870000  0.06810000  0.44850000  1
  C  C214  1  0.86930000  0.08230000  0.36380000  1
  C  C215  1  0.87300000  0.84540000  0.69590000  1
  C  C216  1  0.87600000  0.88180000  0.11610000  1
  C  C217  1  0.87630000  0.59770000  0.63010000  1
  C  C218  1  0.87630000  0.74240000  0.76500000  1
  C  C219  1  0.87690000  0.54940000  0.10850000  1
  C  C220  1  0.88520000  0.50480000  0.70230000  1
  C  C221  1  0.91090000  0.09480000  0.72020000  1
  C  C222  1  0.91540000  0.41580000  0.22650000  1
  C  C223  1  0.91570000  0.12960000  0.09290000  1
  C  C224  1  0.91810000  0.37260000  0.58650000  1
  C  C225  1  0.92410000  0.61300000  0.13840000  1
  C  C226  1  0.93240000  0.52500000  0.06710000  1
  C  C227  1  0.93290000  0.57120000  0.67420000  1
  C  C228  1  0.94110000  0.48010000  0.74300000  1
  C  C229  1  0.95860000  0.48410000  0.25490000  1
  C  C230  1  0.96640000  0.43730000  0.55700000  1
  C  C231  1  0.97220000  0.38530000  0.18640000  1
  C  C232  1  0.97250000  0.03270000  0.44720000  1
  C  C233  1  0.97300000  0.34660000  0.62710000  1
  C  C234  1  0.97530000  0.04480000  0.36210000  1
  C  C235  1  0.97700000  0.98060000  0.90480000  1
  Br  Br236  1  0.09343000  0.36670000  0.34595000  1
  Br  Br237  1  0.12382000  0.60881000  0.28388000  1
  Br  Br238  1  0.13268000  0.55747000  0.52471000  1
  Br  Br239  1  0.14600000  0.29012000  0.45341000  1
  Br  Br240  1  0.16950000  0.97358000  0.40276000  1
  Br  Br241  1  0.33050000  0.47358000  0.40276000  1
  Br  Br242  1  0.35400000  0.79012000  0.45341000  1
  Br  Br243  1  0.36732000  0.05747000  0.52471000  1
  Br  Br244  1  0.37618000  0.10881000  0.28388000  1
  Br  Br245  1  0.40657000  0.86670000  0.34595000  1
  Br  Br246  1  0.59343000  0.13330000  0.84595000  1
  Br  Br247  1  0.62382000  0.89119000  0.78388000  1
  Br  Br248  1  0.63268000  0.94253000  0.02471000  1
  Br  Br249  1  0.64600000  0.20988000  0.95341000  1
  Br  Br250  1  0.66950000  0.52642000  0.90276000  1
  Br  Br251  1  0.83050000  0.02642000  0.90276000  1
  Br  Br252  1  0.85400000  0.70988000  0.95341000  1
  Br  Br253  1  0.86732000  0.44253000  0.02471000  1
  Br  Br254  1  0.87618000  0.39119000  0.78388000  1
  Br  Br255  1  0.90657000  0.63330000  0.84595000  1
  O  O256  1  0.01280000  0.89160000  0.56330000  1
  O  O257  1  0.01960000  0.92710000  0.25110000  1
  O  O258  1  0.04240000  0.11680000  0.21530000  1
  O  O259  1  0.04270000  0.08590000  0.59840000  1
  O  O260  1  0.07700000  0.34280000  0.10300000  1
  O  O261  1  0.07740000  0.93100000  0.17820000  1
  O  O262  1  0.08000000  0.89810000  0.63530000  1
  O  O263  1  0.08620000  0.30580000  0.71040000  1
  O  O264  1  0.13140000  0.90500000  0.78160000  1
  O  O265  1  0.13300000  0.94030000  0.03060000  1
  O  O266  1  0.16600000  0.09510000  0.65510000  1
  O  O267  1  0.17030000  0.12780000  0.15810000  1
  O  O268  1  0.19410000  0.71410000  0.74190000  1
  O  O269  1  0.19730000  0.75440000  0.07360000  1
  O  O270  1  0.21620000  0.43800000  0.12070000  1
  O  O271  1  0.21860000  0.38360000  0.99530000  1
  O  O272  1  0.22120000  0.35350000  0.81940000  1
  O  O273  1  0.22160000  0.40160000  0.69260000  1
  O  O274  1  0.22800000  0.07870000  0.75160000  1
  O  O275  1  0.23170000  0.11240000  0.06340000  1
  O  O276  1  0.26830000  0.61240000  0.06340000  1
  O  O277  1  0.27200000  0.57870000  0.75160000  1
  O  O278  1  0.27840000  0.90160000  0.69260000  1
  O  O279  1  0.27880000  0.85350000  0.81940000  1
  O  O280  1  0.28140000  0.88360000  0.99530000  1
  O  O281  1  0.28380000  0.93800000  0.12070000  1
  O  O282  1  0.30270000  0.25440000  0.07360000  1
  O  O283  1  0.30590000  0.21410000  0.74190000  1
  O  O284  1  0.32970000  0.62780000  0.15810000  1
  O  O285  1  0.33400000  0.59510000  0.65510000  1
  O  O286  1  0.36700000  0.44030000  0.03060000  1
  O  O287  1  0.36860000  0.40500000  0.78160000  1
  O  O288  1  0.41380000  0.80580000  0.71040000  1
  O  O289  1  0.42000000  0.39810000  0.63530000  1
  O  O290  1  0.42260000  0.43100000  0.17820000  1
  O  O291  1  0.42300000  0.84280000  0.10300000  1
  O  O292  1  0.45730000  0.58590000  0.59840000  1
  O  O293  1  0.45760000  0.61680000  0.21530000  1
  O  O294  1  0.48040000  0.42710000  0.25110000  1
  O  O295  1  0.48720000  0.39160000  0.56330000  1
  O  O296  1  0.51280000  0.60840000  0.06330000  1
  O  O297  1  0.51960000  0.57290000  0.75110000  1
  O  O298  1  0.54240000  0.38320000  0.71530000  1
  O  O299  1  0.54270000  0.41410000  0.09840000  1
  O  O300  1  0.57700000  0.15720000  0.60300000  1
  O  O301  1  0.57740000  0.56900000  0.67820000  1
  O  O302  1  0.58000000  0.60190000  0.13530000  1
  O  O303  1  0.58620000  0.19420000  0.21040000  1
  O  O304  1  0.63140000  0.59500000  0.28160000  1
  O  O305  1  0.63300000  0.55970000  0.53060000  1
  O  O306  1  0.66600000  0.40490000  0.15510000  1
  O  O307  1  0.67030000  0.37220000  0.65810000  1
  O  O308  1  0.69410000  0.78590000  0.24190000  1
  O  O309  1  0.69730000  0.74560000  0.57360000  1
  O  O310  1  0.71620000  0.06200000  0.62070000  1
  O  O311  1  0.71860000  0.11640000  0.49530000  1
  O  O312  1  0.72120000  0.14650000  0.31940000  1
  O  O313  1  0.72160000  0.09840000  0.19260000  1
  O  O314  1  0.72800000  0.42130000  0.25160000  1
  O  O315  1  0.73170000  0.38760000  0.56340000  1
  O  O316  1  0.76830000  0.88760000  0.56340000  1
  O  O317  1  0.77200000  0.92130000  0.25160000  1
  O  O318  1  0.77840000  0.59840000  0.19260000  1
  O  O319  1  0.77880000  0.64650000  0.31940000  1
  O  O320  1  0.78140000  0.61640000  0.49530000  1
  O  O321  1  0.78380000  0.56200000  0.62070000  1
  O  O322  1  0.80270000  0.24560000  0.57360000  1
  O  O323  1  0.80590000  0.28590000  0.24190000  1
  O  O324  1  0.82970000  0.87220000  0.65810000  1
  O  O325  1  0.83400000  0.90490000  0.15510000  1
  O  O326  1  0.86700000  0.05970000  0.53060000  1
  O  O327  1  0.86860000  0.09500000  0.28160000  1
  O  O328  1  0.91380000  0.69420000  0.21040000  1
  O  O329  1  0.92000000  0.10190000  0.13530000  1
  O  O330  1  0.92260000  0.06900000  0.67820000  1
  O  O331  1  0.92300000  0.65720000  0.60300000  1
  O  O332  1  0.95730000  0.91410000  0.09840000  1
  O  O333  1  0.95760000  0.88320000  0.71530000  1
  O  O334  1  0.98040000  0.07290000  0.75110000  1
  O  O335  1  0.98720000  0.10840000  0.06330000  1
