# generated using pymatgen
data_CoH24C22(N4O3)2
_symmetry_space_group_name_H-M   'P 1'
_cell_length_a   12.57640000
_cell_length_b   12.57640000
_cell_length_c   62.94100000
_cell_angle_alpha   90.00000000
_cell_angle_beta   90.00000000
_cell_angle_gamma   120.00000000
_symmetry_Int_Tables_number   1
_chemical_formula_structural   CoH24C22(N4O3)2
_chemical_formula_sum   'Co12 H288 C264 N96 O72'
_cell_volume   8621.38330521
_cell_formula_units_Z   12
loop_
 _symmetry_equiv_pos_site_id
 _symmetry_equiv_pos_as_xyz
  1  'x, y, z'
loop_
 _atom_site_type_symbol
 _atom_site_label
 _atom_site_symmetry_multiplicity
 _atom_site_fract_x
 _atom_site_fract_y
 _atom_site_fract_z
 _atom_site_occupancy
  Co  Co0  1  0.81150000  0.40575000  0.41667000  1
  Co  Co1  1  0.69638000  0.34819000  0.91667000  1
  Co  Co2  1  0.65181000  0.30362000  0.25000000  1
  Co  Co3  1  0.65181000  0.34819000  0.58333000  1
  Co  Co4  1  0.59425000  0.18850000  0.75000000  1
  Co  Co5  1  0.59425000  0.40575000  0.08333000  1
  Co  Co6  1  0.40575000  0.59425000  0.58333000  1
  Co  Co7  1  0.40575000  0.81150000  0.25000000  1
  Co  Co8  1  0.34819000  0.65181000  0.08333000  1
  Co  Co9  1  0.34819000  0.69638000  0.75000000  1
  Co  Co10  1  0.30362000  0.65181000  0.41667000  1
  Co  Co11  1  0.18850000  0.59425000  0.91667000  1
  H  H12  1  0.99880000  0.20670000  0.28343000  1
  H  H13  1  0.99880000  0.79210000  0.54990000  1
  H  H14  1  0.99730000  0.29680000  0.61150000  1
  H  H15  1  0.99730000  0.70050000  0.22183000  1
  H  H16  1  0.99170000  0.30980000  0.14247000  1
  H  H17  1  0.99170000  0.68190000  0.69087000  1
  H  H18  1  0.99160000  0.17480000  0.64260000  1
  H  H19  1  0.99160000  0.81680000  0.19073000  1
  H  H20  1  0.98500000  0.37760000  0.36643000  1
  H  H21  1  0.98500000  0.60740000  0.46690000  1
  H  H22  1  0.97800000  0.18000000  0.76763000  1
  H  H23  1  0.97800000  0.79800000  0.06570000  1
  H  H24  1  0.97770000  0.30170000  0.77283000  1
  H  H25  1  0.97770000  0.67600000  0.06050000  1
  H  H26  1  0.97420000  0.35910000  0.06070000  1
  H  H27  1  0.97420000  0.61510000  0.77263000  1
  H  H28  1  0.96320000  0.37520000  0.10857000  1
  H  H29  1  0.96320000  0.58800000  0.72477000  1
  H  H30  1  0.94260000  0.21210000  0.02820000  1
  H  H31  1  0.94260000  0.73050000  0.80513000  1
  H  H32  1  0.94230000  0.30410000  0.67393000  1
  H  H33  1  0.94230000  0.63820000  0.15940000  1
  H  H34  1  0.94140000  0.44000000  0.17397000  1
  H  H35  1  0.94140000  0.50140000  0.65937000  1
  H  H36  1  0.90770000  0.21450000  0.84083000  1
  H  H37  1  0.90770000  0.69320000  0.99250000  1
  H  H38  1  0.90360000  0.29000000  0.97960000  1
  H  H39  1  0.90360000  0.61360000  0.85373000  1
  H  H40  1  0.90320000  0.17970000  0.80473000  1
  H  H41  1  0.90320000  0.72350000  0.02860000  1
  H  H42  1  0.89820000  0.36190000  0.58940000  1
  H  H43  1  0.89820000  0.53630000  0.24393000  1
  H  H44  1  0.88970000  0.39350000  0.86053000  1
  H  H45  1  0.88970000  0.49620000  0.97280000  1
  H  H46  1  0.88600000  0.12550000  0.50947000  1
  H  H47  1  0.88600000  0.76050000  0.32387000  1
  H  H48  1  0.87740000  0.24650000  0.15747000  1
  H  H49  1  0.87740000  0.63090000  0.67587000  1
  H  H50  1  0.87450000  0.11400000  0.65720000  1
  H  H51  1  0.87450000  0.76050000  0.17613000  1
  H  H52  1  0.84290000  0.40910000  0.08487000  1
  H  H53  1  0.84290000  0.43380000  0.74847000  1
  H  H54  1  0.82520000  0.00840000  0.52407000  1
  H  H55  1  0.82520000  0.81680000  0.30927000  1
  H  H56  1  0.82030000  0.09680000  0.36193000  1
  H  H57  1  0.82030000  0.72350000  0.47140000  1
  H  H58  1  0.82000000  0.02200000  0.39903000  1
  H  H59  1  0.82000000  0.79800000  0.43430000  1
  H  H60  1  0.81680000  0.82520000  0.35740000  1
  H  H61  1  0.81680000  0.99160000  0.47593000  1
  H  H62  1  0.81140000  0.28270000  0.51417000  1
  H  H63  1  0.81140000  0.52870000  0.31917000  1
  H  H64  1  0.79800000  0.82000000  0.23237000  1
  H  H65  1  0.79800000  0.97800000  0.60097000  1
  H  H66  1  0.79330000  0.00120000  0.88323000  1
  H  H67  1  0.79330000  0.79210000  0.95010000  1
  H  H68  1  0.79210000  0.79330000  0.71657000  1
  H  H69  1  0.79210000  0.99880000  0.11677000  1
  H  H70  1  0.78790000  0.05740000  0.13847000  1
  H  H71  1  0.78790000  0.73050000  0.69487000  1
  H  H72  1  0.78550000  0.09230000  0.32583000  1
  H  H73  1  0.78550000  0.69320000  0.50750000  1
  H  H74  1  0.76050000  0.87450000  0.49053000  1
  H  H75  1  0.76050000  0.88600000  0.34280000  1
  H  H76  1  0.75580000  0.37270000  0.36933000  1
  H  H77  1  0.75580000  0.38310000  0.46400000  1
  H  H78  1  0.75350000  0.12260000  0.00920000  1
  H  H79  1  0.75350000  0.63090000  0.82413000  1
  H  H80  1  0.74450000  0.37120000  0.29607000  1
  H  H81  1  0.74450000  0.37330000  0.53727000  1
  H  H82  1  0.73050000  0.78790000  0.97180000  1
  H  H83  1  0.73050000  0.94260000  0.86153000  1
  H  H84  1  0.73010000  0.33800000  0.15477000  1
  H  H85  1  0.73010000  0.39210000  0.67857000  1
  H  H86  1  0.72350000  0.82030000  0.19527000  1
  H  H87  1  0.72350000  0.90320000  0.63807000  1
  H  H88  1  0.71730000  0.18860000  0.65250000  1
  H  H89  1  0.71730000  0.52870000  0.18083000  1
  H  H90  1  0.71000000  0.09640000  0.18707000  1
  H  H91  1  0.71000000  0.61360000  0.64627000  1
  H  H92  1  0.70320000  0.00270000  0.55517000  1
  H  H93  1  0.70320000  0.70050000  0.27817000  1
  H  H94  1  0.70050000  0.70320000  0.38850000  1
  H  H95  1  0.70050000  0.99730000  0.44483000  1
  H  H96  1  0.69830000  0.02230000  0.39383000  1
  H  H97  1  0.69830000  0.67600000  0.43950000  1
  H  H98  1  0.69590000  0.05770000  0.49273000  1
  H  H99  1  0.69590000  0.63820000  0.34060000  1
  H  H100  1  0.69320000  0.78550000  0.15917000  1
  H  H101  1  0.69320000  0.90770000  0.67417000  1
  H  H102  1  0.69020000  0.00830000  0.02420000  1
  H  H103  1  0.69020000  0.68190000  0.80913000  1
  H  H104  1  0.68190000  0.69020000  0.85753000  1
  H  H105  1  0.68190000  0.99170000  0.97580000  1
  H  H106  1  0.67600000  0.69830000  0.22717000  1
  H  H107  1  0.67600000  0.97770000  0.60617000  1
  H  H108  1  0.66200000  0.26990000  0.01190000  1
  H  H109  1  0.66200000  0.39210000  0.82143000  1
  H  H110  1  0.64090000  0.02580000  0.10597000  1
  H  H111  1  0.64090000  0.61510000  0.72737000  1
  H  H112  1  0.63820000  0.69590000  0.32607000  1
  H  H113  1  0.63820000  0.94230000  0.50727000  1
  H  H114  1  0.63810000  0.10180000  0.57727000  1
  H  H115  1  0.63810000  0.53630000  0.25607000  1
  H  H116  1  0.63090000  0.75350000  0.84253000  1
  H  H117  1  0.63090000  0.87740000  0.99080000  1
  H  H118  1  0.62880000  0.25550000  0.87060000  1
  H  H119  1  0.62880000  0.37330000  0.96273000  1
  H  H120  1  0.62730000  0.24420000  0.79733000  1
  H  H121  1  0.62730000  0.38310000  0.03600000  1
  H  H122  1  0.62670000  0.25550000  0.62940000  1
  H  H123  1  0.62670000  0.37120000  0.20393000  1
  H  H124  1  0.62480000  0.03680000  0.05810000  1
  H  H125  1  0.62480000  0.58800000  0.77523000  1
  H  H126  1  0.62240000  0.01500000  0.80023000  1
  H  H127  1  0.62240000  0.60740000  0.03310000  1
  H  H128  1  0.61690000  0.24420000  0.70267000  1
  H  H129  1  0.61690000  0.37270000  0.13067000  1
  H  H130  1  0.61510000  0.64090000  0.93930000  1
  H  H131  1  0.61510000  0.97420000  0.89403000  1
  H  H132  1  0.61360000  0.71000000  0.02040000  1
  H  H133  1  0.61360000  0.90360000  0.81293000  1
  H  H134  1  0.60790000  0.26990000  0.48810000  1
  H  H135  1  0.60790000  0.33800000  0.34523000  1
  H  H136  1  0.60740000  0.62240000  0.63357000  1
  H  H137  1  0.60740000  0.98500000  0.19977000  1
  H  H138  1  0.60650000  0.11030000  0.30613000  1
  H  H139  1  0.60650000  0.49620000  0.52720000  1
  H  H140  1  0.59090000  0.15710000  0.08180000  1
  H  H141  1  0.59090000  0.43380000  0.75153000  1
  H  H142  1  0.58800000  0.62480000  0.89143000  1
  H  H143  1  0.58800000  0.96320000  0.94190000  1
  H  H144  1  0.56620000  0.15710000  0.41820000  1
  H  H145  1  0.56620000  0.40910000  0.41513000  1
  H  H146  1  0.56000000  0.05860000  0.99270000  1
  H  H147  1  0.56000000  0.50140000  0.84063000  1
  H  H148  1  0.53630000  0.63810000  0.41060000  1
  H  H149  1  0.53630000  0.89820000  0.42273000  1
  H  H150  1  0.52870000  0.71730000  0.48583000  1
  H  H151  1  0.52870000  0.81140000  0.34750000  1
  H  H152  1  0.50380000  0.11030000  0.19387000  1
  H  H153  1  0.50380000  0.39350000  0.63947000  1
  H  H154  1  0.50140000  0.56000000  0.82603000  1
  H  H155  1  0.50140000  0.94140000  0.00730000  1
  H  H156  1  0.49860000  0.05860000  0.50730000  1
  H  H157  1  0.49860000  0.44000000  0.32603000  1
  H  H158  1  0.49620000  0.60650000  0.13947000  1
  H  H159  1  0.49620000  0.88970000  0.69387000  1
  H  H160  1  0.47130000  0.18860000  0.84750000  1
  H  H161  1  0.47130000  0.28270000  0.98583000  1
  H  H162  1  0.46370000  0.10180000  0.92273000  1
  H  H163  1  0.46370000  0.36190000  0.91060000  1
  H  H164  1  0.44000000  0.49860000  0.34063000  1
  H  H165  1  0.44000000  0.94140000  0.49270000  1
  H  H166  1  0.43380000  0.59090000  0.91513000  1
  H  H167  1  0.43380000  0.84290000  0.91820000  1
  H  H168  1  0.41200000  0.03680000  0.44190000  1
  H  H169  1  0.41200000  0.37520000  0.39143000  1
  H  H170  1  0.40910000  0.56620000  0.25153000  1
  H  H171  1  0.40910000  0.84290000  0.58180000  1
  H  H172  1  0.39350000  0.50380000  0.02720000  1
  H  H173  1  0.39350000  0.88970000  0.80613000  1
  H  H174  1  0.39260000  0.01500000  0.69977000  1
  H  H175  1  0.39260000  0.37760000  0.13357000  1
  H  H176  1  0.39210000  0.66200000  0.84523000  1
  H  H177  1  0.39210000  0.73010000  0.98810000  1
  H  H178  1  0.38640000  0.09640000  0.31293000  1
  H  H179  1  0.38640000  0.29000000  0.52040000  1
  H  H180  1  0.38490000  0.02580000  0.39403000  1
  H  H181  1  0.38490000  0.35910000  0.43930000  1
  H  H182  1  0.38310000  0.62730000  0.63067000  1
  H  H183  1  0.38310000  0.75580000  0.20267000  1
  H  H184  1  0.37760000  0.39260000  0.53310000  1
  H  H185  1  0.37760000  0.98500000  0.30023000  1
  H  H186  1  0.37520000  0.41200000  0.27523000  1
  H  H187  1  0.37520000  0.96320000  0.55810000  1
  H  H188  1  0.37330000  0.62880000  0.70393000  1
  H  H189  1  0.37330000  0.74450000  0.12940000  1
  H  H190  1  0.37270000  0.61690000  0.53600000  1
  H  H191  1  0.37270000  0.75580000  0.29733000  1
  H  H192  1  0.37120000  0.62670000  0.46273000  1
  H  H193  1  0.37120000  0.74450000  0.37060000  1
  H  H194  1  0.36910000  0.12260000  0.49080000  1
  H  H195  1  0.36910000  0.24650000  0.34253000  1
  H  H196  1  0.36190000  0.46370000  0.75607000  1
  H  H197  1  0.36190000  0.89820000  0.07727000  1
  H  H198  1  0.36180000  0.05770000  0.00727000  1
  H  H199  1  0.36180000  0.30410000  0.82607000  1
  H  H200  1  0.35910000  0.38490000  0.22737000  1
  H  H201  1  0.35910000  0.97420000  0.60597000  1
  H  H202  1  0.33800000  0.60790000  0.32143000  1
  H  H203  1  0.33800000  0.73010000  0.51190000  1
  H  H204  1  0.32400000  0.02230000  0.10617000  1
  H  H205  1  0.32400000  0.30170000  0.72717000  1
  H  H206  1  0.31810000  0.00830000  0.47580000  1
  H  H207  1  0.31810000  0.30980000  0.35753000  1
  H  H208  1  0.30980000  0.31810000  0.30913000  1
  H  H209  1  0.30980000  0.99170000  0.52420000  1
  H  H210  1  0.30680000  0.09230000  0.17417000  1
  H  H211  1  0.30680000  0.21450000  0.65917000  1
  H  H212  1  0.30410000  0.36180000  0.84060000  1
  H  H213  1  0.30410000  0.94230000  0.99273000  1
  H  H214  1  0.30170000  0.32400000  0.93950000  1
  H  H215  1  0.30170000  0.97770000  0.89383000  1
  H  H216  1  0.29950000  0.00270000  0.94483000  1
  H  H217  1  0.29950000  0.29680000  0.88850000  1
  H  H218  1  0.29680000  0.29950000  0.77817000  1
  H  H219  1  0.29680000  0.99730000  0.05517000  1
  H  H220  1  0.29000000  0.38640000  0.14627000  1
  H  H221  1  0.29000000  0.90360000  0.68707000  1
  H  H222  1  0.28270000  0.47130000  0.68083000  1
  H  H223  1  0.28270000  0.81140000  0.15250000  1
  H  H224  1  0.27650000  0.09680000  0.13807000  1
  H  H225  1  0.27650000  0.17970000  0.69527000  1
  H  H226  1  0.26990000  0.60790000  0.17857000  1
  H  H227  1  0.26990000  0.66200000  0.65477000  1
  H  H228  1  0.26950000  0.05740000  0.36153000  1
  H  H229  1  0.26950000  0.21210000  0.47180000  1
  H  H230  1  0.25550000  0.62670000  0.03727000  1
  H  H231  1  0.25550000  0.62880000  0.79607000  1
  H  H232  1  0.24650000  0.36910000  0.32413000  1
  H  H233  1  0.24650000  0.87740000  0.50920000  1
  H  H234  1  0.24420000  0.61690000  0.96400000  1
  H  H235  1  0.24420000  0.62730000  0.86933000  1
  H  H236  1  0.23950000  0.11400000  0.84280000  1
  H  H237  1  0.23950000  0.12550000  0.99053000  1
  H  H238  1  0.21450000  0.30680000  0.00750000  1
  H  H239  1  0.21450000  0.90770000  0.82583000  1
  H  H240  1  0.21210000  0.26950000  0.19487000  1
  H  H241  1  0.21210000  0.94260000  0.63847000  1
  H  H242  1  0.20790000  0.00120000  0.61677000  1
  H  H243  1  0.20790000  0.20670000  0.21657000  1
  H  H244  1  0.20670000  0.20790000  0.45010000  1
  H  H245  1  0.20670000  0.99880000  0.38323000  1
  H  H246  1  0.20200000  0.02200000  0.10097000  1
  H  H247  1  0.20200000  0.18000000  0.73237000  1
  H  H248  1  0.18860000  0.47130000  0.81917000  1
  H  H249  1  0.18860000  0.71730000  0.01417000  1
  H  H250  1  0.18320000  0.00840000  0.97593000  1
  H  H251  1  0.18320000  0.17480000  0.85740000  1
  H  H252  1  0.18000000  0.20200000  0.93430000  1
  H  H253  1  0.18000000  0.97800000  0.89903000  1
  H  H254  1  0.17970000  0.27650000  0.97140000  1
  H  H255  1  0.17970000  0.90320000  0.86193000  1
  H  H256  1  0.17480000  0.18320000  0.80927000  1
  H  H257  1  0.17480000  0.99160000  0.02407000  1
  H  H258  1  0.15710000  0.56620000  0.24847000  1
  H  H259  1  0.15710000  0.59090000  0.58487000  1
  H  H260  1  0.12550000  0.23950000  0.67613000  1
  H  H261  1  0.12550000  0.88600000  0.15720000  1
  H  H262  1  0.12260000  0.36910000  0.17587000  1
  H  H263  1  0.12260000  0.75350000  0.65747000  1
  H  H264  1  0.11400000  0.23950000  0.82387000  1
  H  H265  1  0.11400000  0.87450000  0.00947000  1
  H  H266  1  0.11030000  0.50380000  0.47280000  1
  H  H267  1  0.11030000  0.60650000  0.36053000  1
  H  H268  1  0.10180000  0.46370000  0.74393000  1
  H  H269  1  0.10180000  0.63810000  0.08940000  1
  H  H270  1  0.09680000  0.27650000  0.52860000  1
  H  H271  1  0.09680000  0.82030000  0.30473000  1
  H  H272  1  0.09640000  0.38640000  0.35373000  1
  H  H273  1  0.09640000  0.71000000  0.47960000  1
  H  H274  1  0.09230000  0.30680000  0.49250000  1
  H  H275  1  0.09230000  0.78550000  0.34083000  1
  H  H276  1  0.05860000  0.49860000  0.15937000  1
  H  H277  1  0.05860000  0.56000000  0.67397000  1
  H  H278  1  0.05770000  0.36180000  0.65940000  1
  H  H279  1  0.05770000  0.69590000  0.17393000  1
  H  H280  1  0.05740000  0.26950000  0.30513000  1
  H  H281  1  0.05740000  0.78790000  0.52820000  1
  H  H282  1  0.03680000  0.41200000  0.22477000  1
  H  H283  1  0.03680000  0.62480000  0.60857000  1
  H  H284  1  0.02580000  0.38490000  0.27263000  1
  H  H285  1  0.02580000  0.64090000  0.56070000  1
  H  H286  1  0.02230000  0.32400000  0.56050000  1
  H  H287  1  0.02230000  0.69830000  0.27283000  1
  H  H288  1  0.02200000  0.20200000  0.56570000  1
  H  H289  1  0.02200000  0.82000000  0.26763000  1
  H  H290  1  0.01500000  0.39260000  0.96690000  1
  H  H291  1  0.01500000  0.62240000  0.86643000  1
  H  H292  1  0.00840000  0.18320000  0.69073000  1
  H  H293  1  0.00840000  0.82520000  0.14260000  1
  H  H294  1  0.00830000  0.31810000  0.19087000  1
  H  H295  1  0.00830000  0.69020000  0.64247000  1
  H  H296  1  0.00270000  0.29950000  0.72183000  1
  H  H297  1  0.00270000  0.70320000  0.11150000  1
  H  H298  1  0.00120000  0.20790000  0.04990000  1
  H  H299  1  0.00120000  0.79330000  0.78343000  1
  C  C300  1  1.00000000  0.28770000  0.66666667  1
  C  C301  1  1.00000000  0.42370000  0.16667000  1
  C  C302  1  1.00000000  0.57630000  0.66666667  1
  C  C303  1  1.00000000  0.71230000  0.16667000  1
  C  C304  1  0.99470000  0.25650000  0.29477000  1
  C  C305  1  0.99470000  0.73820000  0.53856000  1
  C  C306  1  0.95920000  0.42770000  0.03448000  1
  C  C307  1  0.95920000  0.53150000  0.79885000  1
  C  C308  1  0.93350000  0.18980000  0.65030000  1
  C  C309  1  0.93350000  0.74370000  0.18303000  1
  C  C310  1  0.93220000  0.32240000  0.15016000  1
  C  C311  1  0.93220000  0.60980000  0.68318000  1
  C  C312  1  0.92980000  0.21360000  0.77306000  1
  C  C313  1  0.92980000  0.71620000  0.06027000  1
  C  C314  1  0.92850000  0.35880000  0.97006000  1
  C  C315  1  0.92850000  0.56970000  0.86327000  1
  C  C316  1  0.92470000  0.45120000  0.83208000  1
  C  C317  1  0.92470000  0.47350000  0.00125000  1
  C  C318  1  0.92330000  0.33840000  0.80233000  1
  C  C319  1  0.92330000  0.58490000  0.03100000  1
  C  C320  1  0.92120000  0.28610000  0.61537000  1
  C  C321  1  0.92120000  0.63510000  0.21796000  1
  C  C322  1  0.89230000  0.37330000  0.11334000  1
  C  C323  1  0.89230000  0.51900000  0.72000000  1
  C  C324  1  0.86940000  0.18640000  0.30536000  1
  C  C325  1  0.86940000  0.68300000  0.52797000  1
  C  C326  1  0.86690000  0.23040000  0.63479000  1
  C  C327  1  0.86690000  0.63650000  0.19854000  1
  C  C328  1  0.86030000  0.32440000  0.60214000  1
  C  C329  1  0.86030000  0.53590000  0.23119000  1
  C  C330  1  0.85940000  0.34960000  0.13461000  1
  C  C331  1  0.85940000  0.50980000  0.69873000  1
  C  C332  1  0.85560000  0.31420000  0.94974000  1
  C  C333  1  0.85560000  0.54140000  0.88359000  1
  C  C334  1  0.82790000  0.18230000  0.40732000  1
  C  C335  1  0.82790000  0.64560000  0.42601000  1
  C  C336  1  0.81930000  0.39420000  0.09906000  1
  C  C337  1  0.81930000  0.42510000  0.73428000  1
  C  C338  1  0.81770000  0.17210000  0.75934000  1
  C  C339  1  0.81770000  0.64560000  0.07399000  1
  C  C340  1  0.81360000  0.13060000  0.86130000  1
  C  C341  1  0.81360000  0.68300000  0.97203000  1
  C  C342  1  0.81020000  0.06650000  0.51637000  1
  C  C343  1  0.81020000  0.74370000  0.31697000  1
  C  C344  1  0.78640000  0.07020000  0.39360000  1
  C  C345  1  0.78640000  0.71620000  0.43973000  1
  C  C346  1  0.77810000  0.24480000  0.52704000  1
  C  C347  1  0.77810000  0.53330000  0.30630000  1
  C  C348  1  0.76960000  0.13310000  0.53188000  1
  C  C349  1  0.76960000  0.63650000  0.30146000  1
  C  C350  1  0.75520000  0.22190000  0.63963000  1
  C  C351  1  0.75520000  0.53330000  0.19370000  1
  C  C352  1  0.75480000  0.35140000  0.14063000  1
  C  C353  1  0.75480000  0.40340000  0.69271000  1
  C  C354  1  0.74370000  0.81020000  0.34970000  1
  C  C355  1  0.74370000  0.93350000  0.48363000  1
  C  C356  1  0.74350000  0.00530000  0.87189000  1
  C  C357  1  0.74350000  0.73820000  0.96144000  1
  C  C358  1  0.73820000  0.74350000  0.70523000  1
  C  C359  1  0.73820000  0.99470000  0.12811000  1
  C  C360  1  0.73780000  0.29880000  0.54113000  1
  C  C361  1  0.73780000  0.43900000  0.29221000  1
  C  C362  1  0.71620000  0.78640000  0.22694000  1
  C  C363  1  0.71620000  0.92980000  0.60640000  1
  C  C364  1  0.71390000  0.07880000  0.55130000  1
  C  C365  1  0.71390000  0.63510000  0.28204000  1
  C  C366  1  0.71230000  0.71230000  0.33333333  1
  C  C367  1  0.71230000  0.00000000  0.50000000  1
  C  C368  1  0.70120000  0.26220000  0.62554000  1
  C  C369  1  0.70120000  0.43900000  0.20779000  1
  C  C370  1  0.68710000  0.31450000  0.70726000  1
  C  C371  1  0.68710000  0.37260000  0.12608000  1
  C  C372  1  0.68580000  0.14440000  0.21693000  1
  C  C373  1  0.68580000  0.54140000  0.61641000  1
  C  C374  1  0.68550000  0.31290000  0.45941000  1
  C  C375  1  0.68550000  0.37260000  0.37392000  1
  C  C376  1  0.68300000  0.81360000  0.69464000  1
  C  C377  1  0.68300000  0.86940000  0.13870000  1
  C  C378  1  0.67760000  0.06780000  0.01651000  1
  C  C379  1  0.67760000  0.60980000  0.81682000  1
  C  C380  1  0.67560000  0.13970000  0.56453000  1
  C  C381  1  0.67560000  0.53590000  0.26881000  1
  C  C382  1  0.66160000  0.07670000  0.36433000  1
  C  C383  1  0.66160000  0.58490000  0.46900000  1
  C  C384  1  0.65040000  0.14060000  0.03206000  1
  C  C385  1  0.65040000  0.50980000  0.80127000  1
  C  C386  1  0.64860000  0.24520000  0.02604000  1
  C  C387  1  0.64860000  0.40340000  0.80729000  1
  C  C388  1  0.64560000  0.81770000  0.59268000  1
  C  C389  1  0.64560000  0.82790000  0.24066000  1
  C  C390  1  0.64120000  0.07150000  0.19661000  1
  C  C391  1  0.64120000  0.56970000  0.63673000  1
  C  C392  1  0.63650000  0.76960000  0.36521000  1
  C  C393  1  0.63650000  0.86690000  0.46812000  1
  C  C394  1  0.63510000  0.71390000  0.38463000  1
  C  C395  1  0.63510000  0.92120000  0.44870000  1
  C  C396  1  0.62740000  0.31290000  0.04059000  1
  C  C397  1  0.62740000  0.31450000  0.79274000  1
  C  C398  1  0.62670000  0.10770000  0.05333000  1
  C  C399  1  0.62670000  0.51900000  0.78000000  1
  C  C400  1  0.60980000  0.67760000  0.84984000  1
  C  C401  1  0.60980000  0.93220000  0.98349000  1
  C  C402  1  0.60580000  0.18070000  0.06761000  1
  C  C403  1  0.60580000  0.42510000  0.76572000  1
  C  C404  1  0.59660000  0.24520000  0.47396000  1
  C  C405  1  0.59660000  0.35140000  0.35937000  1
  C  C406  1  0.58490000  0.66160000  0.19767000  1
  C  C407  1  0.58490000  0.92330000  0.63567000  1
  C  C408  1  0.57630000  0.57630000  0.83333000  1
  C  C409  1  0.57630000  0.00000000  0.00000000  1
  C  C410  1  0.57490000  0.18070000  0.43239000  1
  C  C411  1  0.57490000  0.39420000  0.40094000  1
  C  C412  1  0.57230000  0.04080000  0.13219000  1
  C  C413  1  0.57230000  0.53150000  0.70115000  1
  C  C414  1  0.56970000  0.64120000  0.02994000  1
  C  C415  1  0.56970000  0.92850000  0.80339000  1
  C  C416  1  0.56100000  0.26220000  0.87446000  1
  C  C417  1  0.56100000  0.29880000  0.95887000  1
  C  C418  1  0.54880000  0.07530000  0.33458000  1
  C  C419  1  0.54880000  0.47350000  0.49875000  1
  C  C420  1  0.54140000  0.68580000  0.05026000  1
  C  C421  1  0.54140000  0.85560000  0.78307000  1
  C  C422  1  0.53590000  0.67560000  0.39786000  1
  C  C423  1  0.53590000  0.86030000  0.43547000  1
  C  C424  1  0.53330000  0.75520000  0.47296000  1
  C  C425  1  0.53330000  0.77810000  0.36037000  1
  C  C426  1  0.53150000  0.57230000  0.96552000  1
  C  C427  1  0.53150000  0.95920000  0.86781000  1
  C  C428  1  0.52650000  0.07530000  0.16542000  1
  C  C429  1  0.52650000  0.45120000  0.66792000  1
  C  C430  1  0.51900000  0.62670000  0.88666000  1
  C  C431  1  0.51900000  0.89230000  0.94667000  1
  C  C432  1  0.50980000  0.65040000  0.86539000  1
  C  C433  1  0.50980000  0.85940000  0.96794000  1
  C  C434  1  0.49020000  0.14060000  0.46794000  1
  C  C435  1  0.49020000  0.34960000  0.36539000  1
  C  C436  1  0.48100000  0.10770000  0.44667000  1
  C  C437  1  0.48100000  0.37330000  0.38666000  1
  C  C438  1  0.47350000  0.54880000  0.16792000  1
  C  C439  1  0.47350000  0.92470000  0.66542000  1
  C  C440  1  0.46850000  0.04080000  0.36781000  1
  C  C441  1  0.46850000  0.42770000  0.46552000  1
  C  C442  1  0.46670000  0.22190000  0.86037000  1
  C  C443  1  0.46670000  0.24480000  0.97296000  1
  C  C444  1  0.46410000  0.13970000  0.93547000  1
  C  C445  1  0.46410000  0.32440000  0.89786000  1
  C  C446  1  0.45860000  0.14440000  0.28307000  1
  C  C447  1  0.45860000  0.31420000  0.55026000  1
  C  C448  1  0.45120000  0.52650000  0.99875000  1
  C  C449  1  0.45120000  0.92470000  0.83458000  1
  C  C450  1  0.43900000  0.70120000  0.45887000  1
  C  C451  1  0.43900000  0.73780000  0.37446000  1
  C  C452  1  0.43030000  0.07150000  0.30339000  1
  C  C453  1  0.43030000  0.35880000  0.52994000  1
  C  C454  1  0.42770000  0.46850000  0.20115000  1
  C  C455  1  0.42770000  0.95920000  0.63219000  1
  C  C456  1  0.42510000  0.60580000  0.90094000  1
  C  C457  1  0.42510000  0.81930000  0.93239000  1
  C  C458  1  0.42370000  0.42370000  0.33333333  1
  C  C459  1  0.42370000  0.00000000  0.50000000  1
  C  C460  1  0.41510000  0.07670000  0.13567000  1
  C  C461  1  0.41510000  0.33840000  0.69767000  1
  C  C462  1  0.40340000  0.64860000  0.85937000  1
  C  C463  1  0.40340000  0.75480000  0.97396000  1
  C  C464  1  0.39420000  0.57490000  0.26572000  1
  C  C465  1  0.39420000  0.81930000  0.56761000  1
  C  C466  1  0.39020000  0.06780000  0.48349000  1
  C  C467  1  0.39020000  0.32240000  0.34984000  1
  C  C468  1  0.37330000  0.48100000  0.28000000  1
  C  C469  1  0.37330000  0.89230000  0.55333000  1
  C  C470  1  0.37260000  0.68550000  0.29274000  1
  C  C471  1  0.37260000  0.68710000  0.54059000  1
  C  C472  1  0.36490000  0.07880000  0.94870000  1
  C  C473  1  0.36490000  0.28610000  0.88463000  1
  C  C474  1  0.36350000  0.13310000  0.96812000  1
  C  C475  1  0.36350000  0.23040000  0.86521000  1
  C  C476  1  0.35880000  0.43030000  0.13673000  1
  C  C477  1  0.35880000  0.92850000  0.69661000  1
  C  C478  1  0.35440000  0.17210000  0.74066000  1
  C  C479  1  0.35440000  0.18230000  0.09268000  1
  C  C480  1  0.35140000  0.59660000  0.30729000  1
  C  C481  1  0.35140000  0.75480000  0.52604000  1
  C  C482  1  0.34960000  0.49020000  0.30127000  1
  C  C483  1  0.34960000  0.85940000  0.53206000  1
  C  C484  1  0.33840000  0.41510000  0.96900000  1
  C  C485  1  0.33840000  0.92330000  0.86433000  1
  C  C486  1  0.32440000  0.46410000  0.76881000  1
  C  C487  1  0.32440000  0.86030000  0.06453000  1
  C  C488  1  0.32240000  0.39020000  0.31682000  1
  C  C489  1  0.32240000  0.93220000  0.51651000  1
  C  C490  1  0.31700000  0.13060000  0.63870000  1
  C  C491  1  0.31700000  0.18640000  0.19464000  1
  C  C492  1  0.31450000  0.62740000  0.87392000  1
  C  C493  1  0.31450000  0.68710000  0.95941000  1
  C  C494  1  0.31420000  0.45860000  0.11641000  1
  C  C495  1  0.31420000  0.85560000  0.71693000  1
  C  C496  1  0.31290000  0.62740000  0.62608000  1
  C  C497  1  0.31290000  0.68550000  0.20726000  1
  C  C498  1  0.29880000  0.56100000  0.70779000  1
  C  C499  1  0.29880000  0.73780000  0.12554000  1
  C  C500  1  0.28770000  0.28770000  0.83333000  1
  C  C501  1  0.28770000  1.00000000  1.00000000  1
  C  C502  1  0.28610000  0.36490000  0.78204000  1
  C  C503  1  0.28610000  0.92120000  0.05130000  1
  C  C504  1  0.28380000  0.07020000  0.10640000  1
  C  C505  1  0.28380000  0.21360000  0.72694000  1
  C  C506  1  0.26220000  0.56100000  0.79221000  1
  C  C507  1  0.26220000  0.70120000  0.04113000  1
  C  C508  1  0.26180000  0.00530000  0.62811000  1
  C  C509  1  0.26180000  0.25650000  0.20523000  1
  C  C510  1  0.25650000  0.26180000  0.46144000  1
  C  C511  1  0.25650000  0.99470000  0.37189000  1
  C  C512  1  0.25630000  0.06650000  0.98363000  1
  C  C513  1  0.25630000  0.18980000  0.84970000  1
  C  C514  1  0.24520000  0.59660000  0.19271000  1
  C  C515  1  0.24520000  0.64860000  0.64063000  1
  C  C516  1  0.24480000  0.46670000  0.69370000  1
  C  C517  1  0.24480000  0.77810000  0.13963000  1
  C  C518  1  0.23040000  0.36350000  0.80146000  1
  C  C519  1  0.23040000  0.86690000  0.03188000  1
  C  C520  1  0.22190000  0.46670000  0.80630000  1
  C  C521  1  0.22190000  0.75520000  0.02704000  1
  C  C522  1  0.21360000  0.28380000  0.93973000  1
  C  C523  1  0.21360000  0.92980000  0.89360000  1
  C  C524  1  0.18980000  0.25630000  0.81697000  1
  C  C525  1  0.18980000  0.93350000  0.01637000  1
  C  C526  1  0.18640000  0.31700000  0.47203000  1
  C  C527  1  0.18640000  0.86940000  0.36130000  1
  C  C528  1  0.18230000  0.35440000  0.57399000  1
  C  C529  1  0.18230000  0.82790000  0.25934000  1
  C  C530  1  0.18070000  0.57490000  0.23428000  1
  C  C531  1  0.18070000  0.60580000  0.59906000  1
  C  C532  1  0.17210000  0.35440000  0.92601000  1
  C  C533  1  0.17210000  0.81770000  0.90732000  1
  C  C534  1  0.14440000  0.45860000  0.38359000  1
  C  C535  1  0.14440000  0.68580000  0.44974000  1
  C  C536  1  0.14060000  0.49020000  0.19873000  1
  C  C537  1  0.14060000  0.65040000  0.63461000  1
  C  C538  1  0.13970000  0.46410000  0.73119000  1
  C  C539  1  0.13970000  0.67560000  0.10214000  1
  C  C540  1  0.13310000  0.36350000  0.69854000  1
  C  C541  1  0.13310000  0.76960000  0.13479000  1
  C  C542  1  0.13060000  0.31700000  0.02797000  1
  C  C543  1  0.13060000  0.81360000  0.80536000  1
  C  C544  1  0.10770000  0.48100000  0.22000000  1
  C  C545  1  0.10770000  0.62670000  0.61334000  1
  C  C546  1  0.07880000  0.36490000  0.71796000  1
  C  C547  1  0.07880000  0.71390000  0.11537000  1
  C  C548  1  0.07670000  0.41510000  0.53100000  1
  C  C549  1  0.07670000  0.66160000  0.30233000  1
  C  C550  1  0.07530000  0.52650000  0.50125000  1
  C  C551  1  0.07530000  0.54880000  0.33208000  1
  C  C552  1  0.07150000  0.43030000  0.36327000  1
  C  C553  1  0.07150000  0.64120000  0.47006000  1
  C  C554  1  0.07020000  0.28380000  0.56027000  1
  C  C555  1  0.07020000  0.78640000  0.27306000  1
  C  C556  1  0.06780000  0.39020000  0.18318000  1
  C  C557  1  0.06780000  0.67760000  0.65016000  1
  C  C558  1  0.06650000  0.25630000  0.68303000  1
  C  C559  1  0.06650000  0.81020000  0.15030000  1
  C  C560  1  0.04080000  0.46850000  0.29885000  1
  C  C561  1  0.04080000  0.57230000  0.53448000  1
  C  C562  1  0.00530000  0.26180000  0.03856000  1
  C  C563  1  0.00530000  0.74350000  0.79477000  1
  N  N564  1  0.97820000  0.35290000  0.04720000  1
  N  N565  1  0.97820000  0.62530000  0.78613000  1
  N  N566  1  0.95140000  0.40210000  0.01328000  1
  N  N567  1  0.95140000  0.54930000  0.82005000  1
  N  N568  1  0.94710000  0.42990000  0.78928000  1
  N  N569  1  0.94710000  0.51720000  0.04405000  1
  N  N570  1  0.91630000  0.23590000  0.79558000  1
  N  N571  1  0.91630000  0.68040000  0.03775000  1
  N  N572  1  0.91040000  0.45270000  0.98047000  1
  N  N573  1  0.91040000  0.45770000  0.85286000  1
  N  N574  1  0.90890000  0.34350000  0.82419000  1
  N  N575  1  0.90890000  0.56540000  0.00914000  1
  N  N576  1  0.76410000  0.08370000  0.37108000  1
  N  N577  1  0.76410000  0.68040000  0.46225000  1
  N  N578  1  0.74870000  0.31140000  0.60635000  1
  N  N579  1  0.74870000  0.43730000  0.22698000  1
  N  N580  1  0.71720000  0.32350000  0.72832000  1
  N  N581  1  0.71720000  0.39370000  0.10502000  1
  N  N582  1  0.68860000  0.25130000  0.56032000  1
  N  N583  1  0.68860000  0.43730000  0.27302000  1
  N  N584  1  0.68040000  0.76410000  0.20442000  1
  N  N585  1  0.68040000  0.91630000  0.62892000  1
  N  N586  1  0.67650000  0.28280000  0.43835000  1
  N  N587  1  0.67650000  0.39370000  0.39498000  1
  N  N588  1  0.65650000  0.09110000  0.34247000  1
  N  N589  1  0.65650000  0.56540000  0.49086000  1
  N  N590  1  0.64710000  0.02180000  0.11947000  1
  N  N591  1  0.64710000  0.62530000  0.71387000  1
  N  N592  1  0.62530000  0.64710000  0.95280000  1
  N  N593  1  0.62530000  0.97820000  0.88053000  1
  N  N594  1  0.60630000  0.28280000  0.06165000  1
  N  N595  1  0.60630000  0.32350000  0.77168000  1
  N  N596  1  0.59790000  0.04860000  0.15339000  1
  N  N597  1  0.59790000  0.54930000  0.67995000  1
  N  N598  1  0.57010000  0.05290000  0.37738000  1
  N  N599  1  0.57010000  0.51720000  0.45595000  1
  N  N600  1  0.56540000  0.65650000  0.17581000  1
  N  N601  1  0.56540000  0.90890000  0.65753000  1
  N  N602  1  0.56270000  0.25130000  0.93968000  1
  N  N603  1  0.56270000  0.31140000  0.89365000  1
  N  N604  1  0.54930000  0.59790000  0.98672000  1
  N  N605  1  0.54930000  0.95140000  0.84661000  1
  N  N606  1  0.54730000  0.08960000  0.18620000  1
  N  N607  1  0.54730000  0.45770000  0.64714000  1
  N  N608  1  0.54230000  0.08960000  0.31380000  1
  N  N609  1  0.54230000  0.45270000  0.51953000  1
  N  N610  1  0.51720000  0.57010000  0.21072000  1
  N  N611  1  0.51720000  0.94710000  0.62262000  1
  N  N612  1  0.48280000  0.05290000  0.12262000  1
  N  N613  1  0.48280000  0.42990000  0.71072000  1
  N  N614  1  0.45770000  0.54730000  0.01953000  1
  N  N615  1  0.45770000  0.91040000  0.81380000  1
  N  N616  1  0.45270000  0.54230000  0.14714000  1
  N  N617  1  0.45270000  0.91040000  0.68620000  1
  N  N618  1  0.45070000  0.04860000  0.34661000  1
  N  N619  1  0.45070000  0.40210000  0.48672000  1
  N  N620  1  0.43730000  0.68860000  0.39365000  1
  N  N621  1  0.43730000  0.74870000  0.43968000  1
  N  N622  1  0.43460000  0.09110000  0.15753000  1
  N  N623  1  0.43460000  0.34350000  0.67581000  1
  N  N624  1  0.42990000  0.48280000  0.95595000  1
  N  N625  1  0.42990000  0.94710000  0.87738000  1
  N  N626  1  0.40210000  0.45070000  0.17995000  1
  N  N627  1  0.40210000  0.95140000  0.65339000  1
  N  N628  1  0.39370000  0.67650000  0.27168000  1
  N  N629  1  0.39370000  0.71720000  0.56165000  1
  N  N630  1  0.37470000  0.02180000  0.38053000  1
  N  N631  1  0.37470000  0.35290000  0.45280000  1
  N  N632  1  0.35290000  0.37470000  0.21387000  1
  N  N633  1  0.35290000  0.97820000  0.61947000  1
  N  N634  1  0.34350000  0.43460000  0.99086000  1
  N  N635  1  0.34350000  0.90890000  0.84247000  1
  N  N636  1  0.32350000  0.60630000  0.89498000  1
  N  N637  1  0.32350000  0.71720000  0.93835000  1
  N  N638  1  0.31960000  0.08370000  0.12892000  1
  N  N639  1  0.31960000  0.23590000  0.70442000  1
  N  N640  1  0.31140000  0.56270000  0.77302000  1
  N  N641  1  0.31140000  0.74870000  0.06032000  1
  N  N642  1  0.28280000  0.60630000  0.60502000  1
  N  N643  1  0.28280000  0.67650000  0.22832000  1
  N  N644  1  0.25130000  0.56270000  0.72698000  1
  N  N645  1  0.25130000  0.68860000  0.10635000  1
  N  N646  1  0.23590000  0.31960000  0.96225000  1
  N  N647  1  0.23590000  0.91630000  0.87108000  1
  N  N648  1  0.09110000  0.43460000  0.50914000  1
  N  N649  1  0.09110000  0.65650000  0.32419000  1
  N  N650  1  0.08960000  0.54230000  0.35286000  1
  N  N651  1  0.08960000  0.54730000  0.48047000  1
  N  N652  1  0.08370000  0.31960000  0.53775000  1
  N  N653  1  0.08370000  0.76410000  0.29558000  1
  N  N654  1  0.05290000  0.48280000  0.54405000  1
  N  N655  1  0.05290000  0.57010000  0.28928000  1
  N  N656  1  0.04860000  0.45070000  0.32005000  1
  N  N657  1  0.04860000  0.59790000  0.51328000  1
  N  N658  1  0.02180000  0.37470000  0.28613000  1
  N  N659  1  0.02180000  0.64710000  0.54720000  1
  O  O660  1  0.87480000  0.14300000  0.84487000  1
  O  O661  1  0.87480000  0.73180000  0.98846000  1
  O  O662  1  0.86980000  0.17940000  0.42518000  1
  O  O663  1  0.86980000  0.69040000  0.40815000  1
  O  O664  1  0.85700000  0.12520000  0.32179000  1
  O  O665  1  0.85700000  0.73180000  0.51154000  1
  O  O666  1  0.82900000  0.38600000  0.93995000  1
  O  O667  1  0.82900000  0.44300000  0.89338000  1
  O  O668  1  0.82790000  0.20710000  0.94338000  1
  O  O669  1  0.82790000  0.62080000  0.88995000  1
  O  O670  1  0.82060000  0.13020000  0.74148000  1
  O  O671  1  0.82060000  0.69040000  0.09185000  1
  O  O672  1  0.81550000  0.26720000  0.39983000  1
  O  O673  1  0.81550000  0.54830000  0.43350000  1
  O  O674  1  0.80620000  0.21740000  0.87016000  1
  O  O675  1  0.80620000  0.58880000  0.96317000  1
  O  O676  1  0.79290000  0.17210000  0.22329000  1
  O  O677  1  0.79290000  0.62080000  0.61005000  1
  O  O678  1  0.78260000  0.19380000  0.29650000  1
  O  O679  1  0.78260000  0.58880000  0.53683000  1
  O  O680  1  0.73280000  0.18450000  0.76683000  1
  O  O681  1  0.73280000  0.54830000  0.06650000  1
  O  O682  1  0.73180000  0.85700000  0.15513000  1
  O  O683  1  0.73180000  0.87480000  0.67821000  1
  O  O684  1  0.69040000  0.82060000  0.57482000  1
  O  O685  1  0.69040000  0.86980000  0.25852000  1
  O  O686  1  0.62080000  0.79290000  0.05662000  1
  O  O687  1  0.62080000  0.82790000  0.77671000  1
  O  O688  1  0.61400000  0.17100000  0.22672000  1
  O  O689  1  0.61400000  0.44300000  0.60662000  1
  O  O690  1  0.58880000  0.78260000  0.12984000  1
  O  O691  1  0.58880000  0.80620000  0.70350000  1
  O  O692  1  0.55700000  0.17100000  0.27328000  1
  O  O693  1  0.55700000  0.38600000  0.56005000  1
  O  O694  1  0.54830000  0.73280000  0.60017000  1
  O  O695  1  0.54830000  0.81550000  0.23317000  1
  O  O696  1  0.45170000  0.18450000  0.73317000  1
  O  O697  1  0.45170000  0.26720000  0.10017000  1
  O  O698  1  0.44300000  0.61400000  0.06005000  1
  O  O699  1  0.44300000  0.82900000  0.77328000  1
  O  O700  1  0.41120000  0.19380000  0.20350000  1
  O  O701  1  0.41120000  0.21740000  0.62984000  1
  O  O702  1  0.38600000  0.55700000  0.10662000  1
  O  O703  1  0.38600000  0.82900000  0.72672000  1
  O  O704  1  0.37920000  0.17210000  0.27671000  1
  O  O705  1  0.37920000  0.20710000  0.55662000  1
  O  O706  1  0.30960000  0.13020000  0.75852000  1
  O  O707  1  0.30960000  0.17940000  0.07482000  1
  O  O708  1  0.26820000  0.12520000  0.17821000  1
  O  O709  1  0.26820000  0.14300000  0.65513000  1
  O  O710  1  0.26720000  0.45170000  0.56650000  1
  O  O711  1  0.26720000  0.81550000  0.26683000  1
  O  O712  1  0.21740000  0.41120000  0.03683000  1
  O  O713  1  0.21740000  0.80620000  0.79650000  1
  O  O714  1  0.20710000  0.37920000  0.11005000  1
  O  O715  1  0.20710000  0.82790000  0.72329000  1
  O  O716  1  0.19380000  0.41120000  0.46317000  1
  O  O717  1  0.19380000  0.78260000  0.37016000  1
  O  O718  1  0.18450000  0.45170000  0.93350000  1
  O  O719  1  0.18450000  0.73280000  0.89983000  1
  O  O720  1  0.17940000  0.30960000  0.59185000  1
  O  O721  1  0.17940000  0.86980000  0.24148000  1
  O  O722  1  0.17210000  0.37920000  0.38995000  1
  O  O723  1  0.17210000  0.79290000  0.44338000  1
  O  O724  1  0.17100000  0.55700000  0.39338000  1
  O  O725  1  0.17100000  0.61400000  0.43995000  1
  O  O726  1  0.14300000  0.26820000  0.01154000  1
  O  O727  1  0.14300000  0.87480000  0.82179000  1
  O  O728  1  0.13020000  0.30960000  0.90815000  1
  O  O729  1  0.13020000  0.82060000  0.92518000  1
  O  O730  1  0.12520000  0.26820000  0.48846000  1
  O  O731  1  0.12520000  0.85700000  0.34487000  1
