# generated using pymatgen
data_EuH14C24(NO3)2
_symmetry_space_group_name_H-M   'P 1'
_cell_length_a   12.60800000
_cell_length_b   14.21450000
_cell_length_c   14.89800000
_cell_angle_alpha   69.32100000
_cell_angle_beta   67.50300000
_cell_angle_gamma   78.32900000
_symmetry_Int_Tables_number   1
_chemical_formula_structural   EuH14C24(NO3)2
_chemical_formula_sum   'Eu4 H56 C96 N8 O24'
_cell_volume   2300.87560147
_cell_formula_units_Z   4
loop_
 _symmetry_equiv_pos_site_id
 _symmetry_equiv_pos_as_xyz
  1  'x, y, z'
loop_
 _atom_site_type_symbol
 _atom_site_label
 _atom_site_symmetry_multiplicity
 _atom_site_fract_x
 _atom_site_fract_y
 _atom_site_fract_z
 _atom_site_occupancy
  Eu  Eu0  1  0.05154000  0.05386000  0.09297000  1
  Eu  Eu1  1  0.43561000  0.48158000  0.40368000  1
  Eu  Eu2  1  0.56439000  0.51842000  0.59632000  1
  Eu  Eu3  1  0.94846000  0.94614000  0.90703000  1
  H  H4  1  0.02740000  0.93540000  0.56230000  1
  H  H5  1  0.03020000  0.18590000  0.67770000  1
  H  H6  1  0.03370000  0.32830000  0.71680000  1
  H  H7  1  0.05890000  0.30520000  0.96560000  1
  H  H8  1  0.10590000  0.87310000  0.42400000  1
  H  H9  1  0.12560000  0.07450000  0.56660000  1
  H  H10  1  0.17170000  0.72070000  0.95010000  1
  H  H11  1  0.17280000  0.44140000  0.87560000  1
  H  H12  1  0.17620000  0.43870000  0.61130000  1
  H  H13  1  0.19330000  0.70820000  0.21550000  1
  H  H14  1  0.20280000  0.71170000  0.71530000  1
  H  H15  1  0.22030000  0.72420000  0.43610000  1
  H  H16  1  0.23340000  0.88570000  0.21200000  1
  H  H17  1  0.26830000  0.04330000  0.42880000  1
  H  H18  1  0.29770000  0.57730000  0.94780000  1
  H  H19  1  0.30880000  0.21010000  0.80290000  1
  H  H20  1  0.32520000  0.98950000  0.68640000  1
  H  H21  1  0.35780000  0.42220000  0.87890000  1
  H  H22  1  0.37920000  0.50440000  0.07360000  1
  H  H23  1  0.40120000  0.79820000  0.80380000  1
  H  H24  1  0.40880000  0.66310000  0.74870000  1
  H  H25  1  0.41690000  0.85250000  0.22030000  1
  H  H26  1  0.42330000  0.83810000  0.96960000  1
  H  H27  1  0.44690000  0.09810000  0.27790000  1
  H  H28  1  0.45640000  0.79180000  0.47050000  1
  H  H29  1  0.45940000  0.02000000  0.85820000  1
  H  H30  1  0.48600000  0.05510000  0.54980000  1
  H  H31  1  0.49100000  0.68510000  0.05650000  1
  H  H32  1  0.50900000  0.31490000  0.94350000  1
  H  H33  1  0.51400000  0.94490000  0.45020000  1
  H  H34  1  0.54060000  0.98000000  0.14180000  1
  H  H35  1  0.54360000  0.20820000  0.52950000  1
  H  H36  1  0.55310000  0.90190000  0.72210000  1
  H  H37  1  0.57670000  0.16190000  0.03040000  1
  H  H38  1  0.58310000  0.14750000  0.77970000  1
  H  H39  1  0.59120000  0.33690000  0.25130000  1
  H  H40  1  0.59880000  0.20180000  0.19620000  1
  H  H41  1  0.62080000  0.49560000  0.92640000  1
  H  H42  1  0.64220000  0.57780000  0.12110000  1
  H  H43  1  0.67480000  0.01050000  0.31360000  1
  H  H44  1  0.69120000  0.78990000  0.19710000  1
  H  H45  1  0.70230000  0.42270000  0.05220000  1
  H  H46  1  0.73170000  0.95670000  0.57120000  1
  H  H47  1  0.76660000  0.11430000  0.78800000  1
  H  H48  1  0.77970000  0.27580000  0.56390000  1
  H  H49  1  0.79720000  0.28830000  0.28470000  1
  H  H50  1  0.80670000  0.29180000  0.78450000  1
  H  H51  1  0.82380000  0.56130000  0.38870000  1
  H  H52  1  0.82720000  0.55860000  0.12440000  1
  H  H53  1  0.82830000  0.27930000  0.04990000  1
  H  H54  1  0.87440000  0.92550000  0.43340000  1
  H  H55  1  0.89410000  0.12690000  0.57600000  1
  H  H56  1  0.94110000  0.69480000  0.03440000  1
  H  H57  1  0.96630000  0.67170000  0.28320000  1
  H  H58  1  0.96980000  0.81410000  0.32230000  1
  H  H59  1  0.97260000  0.06460000  0.43770000  1
  C  C60  1  0.05200000  0.86970000  0.74230000  1
  C  C61  1  0.07710000  0.87710000  0.56580000  1
  C  C62  1  0.08920000  0.22870000  0.63800000  1
  C  C63  1  0.09050000  0.31380000  0.66030000  1
  C  C64  1  0.09640000  0.82710000  0.08050000  1
  C  C65  1  0.10520000  0.82860000  0.65300000  1
  C  C66  1  0.12290000  0.83910000  0.48340000  1
  C  C67  1  0.13340000  0.29710000  0.96680000  1
  C  C68  1  0.17210000  0.73130000  0.08150000  1
  C  C69  1  0.17730000  0.20690000  0.55510000  1
  C  C70  1  0.17890000  0.37950000  0.59710000  1
  C  C71  1  0.18110000  0.74260000  0.65790000  1
  C  C72  1  0.18230000  0.11960000  0.52740000  1
  C  C73  1  0.19330000  0.75150000  0.48990000  1
  C  C74  1  0.20070000  0.04690000  0.84980000  1
  C  C75  1  0.20150000  0.38060000  0.91200000  1
  C  C76  1  0.20230000  0.69060000  0.00230000  1
  C  C77  1  0.21630000  0.68330000  0.16040000  1
  C  C78  1  0.22460000  0.70270000  0.57670000  1
  C  C79  1  0.26440000  0.27550000  0.49670000  1
  C  C80  1  0.26760000  0.10060000  0.44570000  1
  C  C81  1  0.27690000  0.19650000  0.02150000  1
  C  C82  1  0.27860000  0.60470000  0.00070000  1
  C  C83  1  0.28360000  0.93670000  0.17720000  1
  C  C84  1  0.29420000  0.59860000  0.15830000  1
  C  C85  1  0.29860000  0.09370000  0.75870000  1
  C  C86  1  0.30290000  0.60770000  0.58040000  1
  C  C87  1  0.31080000  0.36880000  0.91420000  1
  C  C88  1  0.31930000  0.09980000  0.07690000  1
  C  C89  1  0.32610000  0.56010000  0.07670000  1
  C  C90  1  0.34060000  0.18140000  0.75000000  1
  C  C91  1  0.34400000  0.55310000  0.24180000  1
  C  C92  1  0.35240000  0.27630000  0.96970000  1
  C  C93  1  0.35260000  0.04770000  0.68180000  1
  C  C94  1  0.35600000  0.16760000  0.38530000  1
  C  C95  1  0.35690000  0.25260000  0.41300000  1
  C  C96  1  0.39390000  0.91630000  0.18400000  1
  C  C97  1  0.43000000  0.22680000  0.66250000  1
  C  C98  1  0.43140000  0.08600000  0.08030000  1
  C  C99  1  0.44670000  0.15110000  0.30080000  1
  C  C100  1  0.44720000  0.08860000  0.59830000  1
  C  C101  1  0.46190000  0.26150000  0.97580000  1
  C  C102  1  0.46340000  0.78650000  0.74890000  1
  C  C103  1  0.46460000  0.32740000  0.64510000  1
  C  C104  1  0.46760000  0.99140000  0.13670000  1
  C  C105  1  0.46870000  0.70540000  0.71440000  1
  C  C106  1  0.48340000  0.17920000  0.58740000  1
  C  C107  1  0.49750000  0.83020000  0.97170000  1
  C  C108  1  0.50250000  0.16980000  0.02830000  1
  C  C109  1  0.51660000  0.82080000  0.41260000  1
  C  C110  1  0.53130000  0.29460000  0.28560000  1
  C  C111  1  0.53240000  0.00860000  0.86330000  1
  C  C112  1  0.53540000  0.67260000  0.35490000  1
  C  C113  1  0.53660000  0.21350000  0.25110000  1
  C  C114  1  0.53810000  0.73850000  0.02420000  1
  C  C115  1  0.55280000  0.91140000  0.40170000  1
  C  C116  1  0.55330000  0.84890000  0.69920000  1
  C  C117  1  0.56860000  0.91400000  0.91970000  1
  C  C118  1  0.57000000  0.77320000  0.33750000  1
  C  C119  1  0.60610000  0.08370000  0.81600000  1
  C  C120  1  0.64310000  0.74740000  0.58700000  1
  C  C121  1  0.64400000  0.83240000  0.61470000  1
  C  C122  1  0.64740000  0.95230000  0.31820000  1
  C  C123  1  0.64760000  0.72370000  0.03030000  1
  C  C124  1  0.65600000  0.44690000  0.75820000  1
  C  C125  1  0.65940000  0.81860000  0.25000000  1
  C  C126  1  0.67390000  0.43990000  0.92330000  1
  C  C127  1  0.68070000  0.90020000  0.92310000  1
  C  C128  1  0.68920000  0.63120000  0.08580000  1
  C  C129  1  0.69710000  0.39230000  0.41960000  1
  C  C130  1  0.70140000  0.90630000  0.24130000  1
  C  C131  1  0.70580000  0.40140000  0.84170000  1
  C  C132  1  0.71640000  0.06330000  0.82280000  1
  C  C133  1  0.72140000  0.39530000  0.99930000  1
  C  C134  1  0.72310000  0.80350000  0.97850000  1
  C  C135  1  0.73240000  0.89940000  0.55430000  1
  C  C136  1  0.73560000  0.72450000  0.50330000  1
  C  C137  1  0.77540000  0.29730000  0.42330000  1
  C  C138  1  0.78370000  0.31670000  0.83960000  1
  C  C139  1  0.79770000  0.30940000  0.99770000  1
  C  C140  1  0.79850000  0.61940000  0.08800000  1
  C  C141  1  0.79930000  0.95310000  0.15020000  1
  C  C142  1  0.80670000  0.24850000  0.51010000  1
  C  C143  1  0.81770000  0.88040000  0.47260000  1
  C  C144  1  0.81890000  0.25740000  0.34210000  1
  C  C145  1  0.82110000  0.62050000  0.40290000  1
  C  C146  1  0.82270000  0.79310000  0.44490000  1
  C  C147  1  0.82790000  0.26870000  0.91850000  1
  C  C148  1  0.86660000  0.70290000  0.03320000  1
  C  C149  1  0.87710000  0.16090000  0.51660000  1
  C  C150  1  0.89480000  0.17140000  0.34700000  1
  C  C151  1  0.90360000  0.17290000  0.91950000  1
  C  C152  1  0.90950000  0.68620000  0.33970000  1
  C  C153  1  0.91080000  0.77130000  0.36200000  1
  C  C154  1  0.92290000  0.12290000  0.43420000  1
  C  C155  1  0.94800000  0.13030000  0.25770000  1
  N  N156  1  0.16860000  0.20810000  0.01970000  1
  N  N157  1  0.24660000  0.02410000  0.12420000  1
  N  N158  1  0.26590000  0.36080000  0.51790000  1
  N  N159  1  0.44620000  0.31460000  0.36390000  1
  N  N160  1  0.55380000  0.68540000  0.63610000  1
  N  N161  1  0.73410000  0.63920000  0.48210000  1
  N  N162  1  0.75340000  0.97590000  0.87580000  1
  N  N163  1  0.83140000  0.79190000  0.98030000  1
  O  O164  1  0.00900000  0.04710000  0.26860000  1
  O  O165  1  0.03520000  0.85450000  0.02480000  1
  O  O166  1  0.07040000  0.82090000  0.82390000  1
  O  O167  1  0.10030000  0.87740000  0.13350000  1
  O  O168  1  0.12870000  0.01140000  0.83270000  1
  O  O169  1  0.19480000  0.04720000  0.93530000  1
  O  O170  1  0.28770000  0.56100000  0.32870000  1
  O  O171  1  0.30720000  0.56230000  0.52050000  1
  O  O172  1  0.36270000  0.58130000  0.63800000  1
  O  O173  1  0.44360000  0.50940000  0.22200000  1
  O  O174  1  0.47030000  0.39440000  0.55990000  1
  O  O175  1  0.49190000  0.34450000  0.70880000  1
  O  O176  1  0.50810000  0.65550000  0.29120000  1
  O  O177  1  0.52970000  0.60560000  0.44010000  1
  O  O178  1  0.55640000  0.49060000  0.77800000  1
  O  O179  1  0.63730000  0.41870000  0.36200000  1
  O  O180  1  0.69280000  0.43770000  0.47950000  1
  O  O181  1  0.71230000  0.43900000  0.67130000  1
  O  O182  1  0.80520000  0.95280000  0.06470000  1
  O  O183  1  0.87130000  0.98860000  0.16730000  1
  O  O184  1  0.89970000  0.12260000  0.86650000  1
  O  O185  1  0.92960000  0.17910000  0.17610000  1
  O  O186  1  0.96480000  0.14550000  0.97520000  1
  O  O187  1  0.99100000  0.95290000  0.73140000  1
