# generated using pymatgen
data_Cd2H16C27N3O8
_symmetry_space_group_name_H-M   'P 1'
_cell_length_a   10.59250000
_cell_length_b   19.44090000
_cell_length_c   23.68200000
_cell_angle_alpha   73.74400000
_cell_angle_beta   83.66100000
_cell_angle_gamma   89.71200000
_symmetry_Int_Tables_number   1
_chemical_formula_structural   Cd2H16C27N3O8
_chemical_formula_sum   'Cd12 H96 C162 N18 O48'
_cell_volume   4651.47305435
_cell_formula_units_Z   6
loop_
 _symmetry_equiv_pos_site_id
 _symmetry_equiv_pos_as_xyz
  1  'x, y, z'
loop_
 _atom_site_type_symbol
 _atom_site_label
 _atom_site_symmetry_multiplicity
 _atom_site_fract_x
 _atom_site_fract_y
 _atom_site_fract_z
 _atom_site_occupancy
  Cd  Cd0  1  0.08562000  0.65758000  0.25296000  1
  Cd  Cd1  1  0.10640000  0.22381000  0.24030000  1
  Cd  Cd2  1  0.24644000  0.45473000  0.22671000  1
  Cd  Cd3  1  0.30306000  0.84345000  0.74129000  1
  Cd  Cd4  1  0.32148000  0.28748000  0.73292000  1
  Cd  Cd5  1  0.45006000  0.04090000  0.76050000  1
  Cd  Cd6  1  0.54994000  0.95910000  0.23950000  1
  Cd  Cd7  1  0.67852000  0.71252000  0.26708000  1
  Cd  Cd8  1  0.69694000  0.15655000  0.25871000  1
  Cd  Cd9  1  0.75356000  0.54527000  0.77329000  1
  Cd  Cd10  1  0.89360000  0.77619000  0.75970000  1
  Cd  Cd11  1  0.91438000  0.34242000  0.74704000  1
  H  H12  1  0.00030000  0.38180000  0.52080000  1
  H  H13  1  0.02290000  0.68000000  0.38110000  1
  H  H14  1  0.02350000  0.43750000  0.43400000  1
  H  H15  1  0.04610000  0.50310000  0.33780000  1
  H  H16  1  0.05700000  0.61140000  0.14110000  1
  H  H17  1  0.08810000  0.33350000  0.11280000  1
  H  H18  1  0.09150000  0.64150000  0.04140000  1
  H  H19  1  0.12420000  0.34980000  0.01360000  1
  H  H20  1  0.12900000  0.80590000  0.14290000  1
  H  H21  1  0.13140000  0.87250000  0.94640000  1
  H  H22  1  0.15700000  0.15750000  0.95340000  1
  H  H23  1  0.16510000  0.84340000  0.04070000  1
  H  H24  1  0.16590000  0.82360000  0.26270000  1
  H  H25  1  0.17000000  0.13400000  0.14520000  1
  H  H26  1  0.18870000  0.02870000  0.25540000  1
  H  H27  1  0.19630000  0.90060000  0.84820000  1
  H  H28  1  0.20180000  0.14230000  0.04740000  1
  H  H29  1  0.20300000  0.17530000  0.85380000  1
  H  H30  1  0.21200000  0.66820000  0.95600000  1
  H  H31  1  0.25590000  0.32350000  0.33650000  1
  H  H32  1  0.26180000  0.97060000  0.62160000  1
  H  H33  1  0.26940000  0.70340000  0.85590000  1
  H  H34  1  0.27250000  0.28590000  0.43400000  1
  H  H35  1  0.27600000  0.35700000  0.93120000  1
  H  H36  1  0.28380000  0.92650000  0.25530000  1
  H  H37  1  0.28630000  0.99530000  0.52160000  1
  H  H38  1  0.32060000  0.22220000  0.62270000  1
  H  H39  1  0.32690000  0.25370000  0.52220000  1
  H  H40  1  0.32860000  0.36830000  0.83390000  1
  H  H41  1  0.33300000  0.45830000  0.51960000  1
  H  H42  1  0.34060000  0.42270000  0.62030000  1
  H  H43  1  0.36210000  0.51550000  0.32690000  1
  H  H44  1  0.37570000  0.02360000  0.42930000  1
  H  H45  1  0.38020000  0.67090000  0.75550000  1
  H  H46  1  0.38530000  0.48480000  0.42550000  1
  H  H47  1  0.39670000  0.66760000  0.07910000  1
  H  H48  1  0.40030000  0.81490000  0.45050000  1
  H  H49  1  0.40300000  0.47090000  0.74410000  1
  H  H50  1  0.41060000  0.78610000  0.63760000  1
  H  H51  1  0.41780000  0.36360000  0.07370000  1
  H  H52  1  0.42500000  0.04180000  0.33050000  1
  H  H53  1  0.43510000  0.80500000  0.53820000  1
  H  H54  1  0.44220000  0.83970000  0.35040000  1
  H  H55  1  0.46210000  0.78570000  0.03720000  1
  H  H56  1  0.47870000  0.83500000  0.92890000  1
  H  H57  1  0.48930000  0.28420000  0.02020000  1
  H  H58  1  0.48940000  0.85890000  0.09440000  1
  H  H59  1  0.49990000  0.42680000  0.24810000  1
  H  H60  1  0.50010000  0.57320000  0.75190000  1
  H  H61  1  0.51060000  0.14110000  0.90560000  1
  H  H62  1  0.51070000  0.71580000  0.97980000  1
  H  H63  1  0.52130000  0.16500000  0.07110000  1
  H  H64  1  0.53790000  0.21430000  0.96280000  1
  H  H65  1  0.55780000  0.16030000  0.64960000  1
  H  H66  1  0.56490000  0.19500000  0.46180000  1
  H  H67  1  0.57500000  0.95820000  0.66950000  1
  H  H68  1  0.58220000  0.63640000  0.92630000  1
  H  H69  1  0.58940000  0.21390000  0.36240000  1
  H  H70  1  0.59700000  0.52910000  0.25590000  1
  H  H71  1  0.59970000  0.18510000  0.54950000  1
  H  H72  1  0.60330000  0.33240000  0.92090000  1
  H  H73  1  0.61470000  0.51520000  0.57450000  1
  H  H74  1  0.61980000  0.32910000  0.24450000  1
  H  H75  1  0.62430000  0.97640000  0.57070000  1
  H  H76  1  0.63790000  0.48450000  0.67310000  1
  H  H77  1  0.65940000  0.57730000  0.37970000  1
  H  H78  1  0.66700000  0.54170000  0.48040000  1
  H  H79  1  0.67140000  0.63170000  0.16610000  1
  H  H80  1  0.67310000  0.74630000  0.47780000  1
  H  H81  1  0.67940000  0.77780000  0.37730000  1
  H  H82  1  0.71370000  0.00470000  0.47840000  1
  H  H83  1  0.71620000  0.07350000  0.74470000  1
  H  H84  1  0.72400000  0.64300000  0.06880000  1
  H  H85  1  0.72750000  0.71410000  0.56600000  1
  H  H86  1  0.73060000  0.29660000  0.14410000  1
  H  H87  1  0.73820000  0.02940000  0.37840000  1
  H  H88  1  0.74410000  0.67650000  0.66350000  1
  H  H89  1  0.78800000  0.33180000  0.04400000  1
  H  H90  1  0.79700000  0.82470000  0.14620000  1
  H  H91  1  0.79820000  0.85770000  0.95260000  1
  H  H92  1  0.80370000  0.09940000  0.15180000  1
  H  H93  1  0.81130000  0.97130000  0.74460000  1
  H  H94  1  0.83000000  0.86600000  0.85480000  1
  H  H95  1  0.83410000  0.17640000  0.73730000  1
  H  H96  1  0.83490000  0.15660000  0.95930000  1
  H  H97  1  0.84300000  0.84250000  0.04660000  1
  H  H98  1  0.86860000  0.12750000  0.05360000  1
  H  H99  1  0.87100000  0.19410000  0.85710000  1
  H  H100  1  0.87580000  0.65020000  0.98640000  1
  H  H101  1  0.90850000  0.35850000  0.95860000  1
  H  H102  1  0.91190000  0.66650000  0.88720000  1
  H  H103  1  0.94300000  0.38860000  0.85890000  1
  H  H104  1  0.95390000  0.49690000  0.66220000  1
  H  H105  1  0.97650000  0.56250000  0.56600000  1
  H  H106  1  0.97710000  0.32000000  0.61890000  1
  H  H107  1  0.99970000  0.61820000  0.47920000  1
  C  C108  1  0.00600000  0.12970000  0.73990000  1
  C  C109  1  0.00620000  0.55400000  0.76670000  1
  C  C110  1  0.00830000  0.99440000  0.25890000  1
  C  C111  1  0.00990000  0.52040000  0.46870000  1
  C  C112  1  0.01000000  0.59310000  0.45090000  1
  C  C113  1  0.02390000  0.48730000  0.42460000  1
  C  C114  1  0.02530000  0.63030000  0.39180000  1
  C  C115  1  0.03870000  0.52700000  0.36690000  1
  C  C116  1  0.04770000  0.93510000  0.74030000  1
  C  C117  1  0.06430000  0.06510000  0.74100000  1
  C  C118  1  0.07850000  0.19710000  0.73710000  1
  C  C119  1  0.08040000  0.65860000  0.12060000  1
  C  C120  1  0.10100000  0.67620000  0.06090000  1
  C  C121  1  0.11270000  0.29430000  0.09930000  1
  C  C122  1  0.12230000  0.77250000  0.12190000  1
  C  C123  1  0.12560000  0.86670000  0.26040000  1
  C  C124  1  0.13430000  0.30490000  0.03960000  1
  C  C125  1  0.13540000  0.69090000  0.75840000  1
  C  C126  1  0.13660000  0.74670000  0.02840000  1
  C  C127  1  0.13940000  0.98860000  0.25690000  1
  C  C128  1  0.14480000  0.79550000  0.06010000  1
  C  C129  1  0.14800000  0.55950000  0.76120000  1
  C  C130  1  0.15930000  0.17820000  0.11820000  1
  C  C131  1  0.16080000  0.83680000  0.92950000  1
  C  C132  1  0.16700000  0.43510000  0.74630000  1
  C  C133  1  0.16740000  0.76750000  0.96410000  1
  C  C134  1  0.17200000  0.24660000  0.01800000  1
  C  C135  1  0.18090000  0.18300000  0.05930000  1
  C  C136  1  0.18930000  0.20180000  0.92970000  1
  C  C137  1  0.19570000  0.92820000  0.25720000  1
  C  C138  1  0.19750000  0.85290000  0.87040000  1
  C  C139  1  0.20400000  0.05970000  0.74220000  1
  C  C140  1  0.20580000  0.25630000  0.95430000  1
  C  C141  1  0.20780000  0.62480000  0.76000000  1
  C  C142  1  0.20790000  0.71620000  0.93480000  1
  C  C143  1  0.22030000  0.21240000  0.86970000  1
  C  C144  1  0.22180000  0.50290000  0.75260000  1
  C  C145  1  0.24130000  0.73770000  0.87460000  1
  C  C146  1  0.26050000  0.31860000  0.91640000  1
  C  C147  1  0.28110000  0.35660000  0.35510000  1
  C  C148  1  0.29080000  0.33370000  0.41360000  1
  C  C149  1  0.29220000  0.32520000  0.85810000  1
  C  C150  1  0.29820000  0.93630000  0.60480000  1
  C  C151  1  0.31250000  0.95140000  0.54420000  1
  C  C152  1  0.32430000  0.27060000  0.60190000  1
  C  C153  1  0.32700000  0.28940000  0.54140000  1
  C  C154  1  0.32790000  0.38080000  0.44350000  1
  C  C155  1  0.33000000  0.35890000  0.50920000  1
  C  C156  1  0.33240000  0.40980000  0.53970000  1
  C  C157  1  0.33310000  0.59570000  0.18960000  1
  C  C158  1  0.33410000  0.38810000  0.60040000  1
  C  C159  1  0.33830000  0.34250000  0.18440000  1
  C  C160  1  0.34000000  0.62840000  0.75580000  1
  C  C161  1  0.34320000  0.46850000  0.34940000  1
  C  C162  1  0.35370000  0.50900000  0.74890000  1
  C  C163  1  0.35690000  0.45060000  0.40880000  1
  C  C164  1  0.36420000  0.90380000  0.51650000  1
  C  C165  1  0.38130000  0.68540000  0.26540000  1
  C  C166  1  0.38240000  0.67110000  0.16380000  1
  C  C167  1  0.38370000  0.91710000  0.45340000  1
  C  C168  1  0.38400000  0.82920000  0.61400000  1
  C  C169  1  0.39100000  0.98430000  0.41470000  1
  C  C170  1  0.39980000  0.84050000  0.55400000  1
  C  C171  1  0.40000000  0.29140000  0.15360000  1
  C  C172  1  0.40020000  0.19660000  0.25040000  1
  C  C173  1  0.40270000  0.71440000  0.19930000  1
  C  C174  1  0.40440000  0.86230000  0.42730000  1
  C  C175  1  0.40700000  0.69730000  0.10310000  1
  C  C176  1  0.41240000  0.57070000  0.75220000  1
  C  C177  1  0.42030000  0.99510000  0.35510000  1
  C  C178  1  0.42440000  0.22220000  0.18400000  1
  C  C179  1  0.42840000  0.31560000  0.09330000  1
  C  C180  1  0.43120000  0.87780000  0.36680000  1
  C  C181  1  0.44580000  0.78510000  0.17320000  1
  C  C182  1  0.44700000  0.76790000  0.07820000  1
  C  C183  1  0.46460000  0.81120000  0.11200000  1
  C  C184  1  0.47190000  0.17500000  0.15260000  1
  C  C185  1  0.47310000  0.26860000  0.06130000  1
  C  C186  1  0.48310000  0.83270000  0.20930000  1
  C  C187  1  0.49330000  0.19740000  0.09200000  1
  C  C188  1  0.49900000  0.09870000  0.18340000  1
  C  C189  1  0.50100000  0.90130000  0.81660000  1
  C  C190  1  0.50670000  0.80260000  0.90800000  1
  C  C191  1  0.51690000  0.16730000  0.79070000  1
  C  C192  1  0.52690000  0.73140000  0.93870000  1
  C  C193  1  0.52810000  0.82500000  0.84740000  1
  C  C194  1  0.53540000  0.18880000  0.88800000  1
  C  C195  1  0.55300000  0.23210000  0.92180000  1
  C  C196  1  0.55420000  0.21490000  0.82680000  1
  C  C197  1  0.56880000  0.12220000  0.63320000  1
  C  C198  1  0.57160000  0.68440000  0.90670000  1
  C  C199  1  0.57560000  0.77780000  0.81600000  1
  C  C200  1  0.57970000  0.00490000  0.64490000  1
  C  C201  1  0.58760000  0.42930000  0.24780000  1
  C  C202  1  0.59300000  0.30270000  0.89690000  1
  C  C203  1  0.59560000  0.13770000  0.57270000  1
  C  C204  1  0.59730000  0.28560000  0.80070000  1
  C  C205  1  0.59980000  0.80340000  0.74960000  1
  C  C206  1  0.60000000  0.70860000  0.84640000  1
  C  C207  1  0.60020000  0.15950000  0.44600000  1
  C  C208  1  0.60900000  0.01570000  0.58530000  1
  C  C209  1  0.61600000  0.17080000  0.38600000  1
  C  C210  1  0.61630000  0.08290000  0.54660000  1
  C  C211  1  0.61760000  0.32890000  0.83620000  1
  C  C212  1  0.61870000  0.31460000  0.73460000  1
  C  C213  1  0.63580000  0.09620000  0.48350000  1
  C  C214  1  0.64310000  0.54940000  0.59120000  1
  C  C215  1  0.64630000  0.49100000  0.25110000  1
  C  C216  1  0.65680000  0.53150000  0.65060000  1
  C  C217  1  0.66000000  0.37160000  0.24420000  1
  C  C218  1  0.66170000  0.65750000  0.81560000  1
  C  C219  1  0.66590000  0.61190000  0.39960000  1
  C  C220  1  0.66690000  0.40430000  0.81040000  1
  C  C221  1  0.66760000  0.59020000  0.46030000  1
  C  C222  1  0.67000000  0.64110000  0.49080000  1
  C  C223  1  0.67210000  0.61920000  0.55650000  1
  C  C224  1  0.67300000  0.71060000  0.45860000  1
  C  C225  1  0.67570000  0.72940000  0.39810000  1
  C  C226  1  0.68750000  0.04860000  0.45580000  1
  C  C227  1  0.70180000  0.06370000  0.39520000  1
  C  C228  1  0.70780000  0.67480000  0.14190000  1
  C  C229  1  0.70920000  0.66630000  0.58640000  1
  C  C230  1  0.71890000  0.64340000  0.64490000  1
  C  C231  1  0.73950000  0.68140000  0.08360000  1
  C  C232  1  0.75870000  0.26230000  0.12540000  1
  C  C233  1  0.77820000  0.49710000  0.24740000  1
  C  C234  1  0.77970000  0.78760000  0.13030000  1
  C  C235  1  0.79210000  0.28380000  0.06520000  1
  C  C236  1  0.79220000  0.37520000  0.24000000  1
  C  C237  1  0.79420000  0.74370000  0.04570000  1
  C  C238  1  0.79600000  0.94030000  0.25780000  1
  C  C239  1  0.80250000  0.14710000  0.12960000  1
  C  C240  1  0.80430000  0.07180000  0.74280000  1
  C  C241  1  0.81070000  0.79820000  0.07030000  1
  C  C242  1  0.81910000  0.81700000  0.94070000  1
  C  C243  1  0.82800000  0.75340000  0.98200000  1
  C  C244  1  0.83260000  0.23250000  0.03590000  1
  C  C245  1  0.83300000  0.56490000  0.25370000  1
  C  C246  1  0.83920000  0.16320000  0.07050000  1
  C  C247  1  0.84070000  0.82180000  0.88180000  1
  C  C248  1  0.85200000  0.44050000  0.23880000  1
  C  C249  1  0.85520000  0.20450000  0.93990000  1
  C  C250  1  0.86060000  0.01140000  0.74310000  1
  C  C251  1  0.86340000  0.25330000  0.97160000  1
  C  C252  1  0.86460000  0.30910000  0.24160000  1
  C  C253  1  0.86570000  0.69510000  0.96040000  1
  C  C254  1  0.87440000  0.13330000  0.73960000  1
  C  C255  1  0.87770000  0.22750000  0.87810000  1
  C  C256  1  0.88730000  0.70570000  0.90070000  1
  C  C257  1  0.89900000  0.32380000  0.93910000  1
  C  C258  1  0.91960000  0.34140000  0.87940000  1
  C  C259  1  0.92150000  0.80290000  0.26290000  1
  C  C260  1  0.93570000  0.93490000  0.25900000  1
  C  C261  1  0.95230000  0.06490000  0.25970000  1
  C  C262  1  0.96130000  0.47300000  0.63310000  1
  C  C263  1  0.97470000  0.36970000  0.60820000  1
  C  C264  1  0.97610000  0.51270000  0.57540000  1
  C  C265  1  0.99000000  0.40690000  0.54910000  1
  C  C266  1  0.99010000  0.47960000  0.53130000  1
  C  C267  1  0.99170000  0.00560000  0.74110000  1
  C  C268  1  0.99380000  0.44600000  0.23330000  1
  C  C269  1  0.99400000  0.87030000  0.26010000  1
  N  N270  1  0.04290000  0.59780000  0.35030000  1
  N  N271  1  0.09220000  0.70560000  0.15150000  1
  N  N272  1  0.12410000  0.23260000  0.13940000  1
  N  N273  1  0.23530000  0.80420000  0.84240000  1
  N  N274  1  0.27320000  0.27230000  0.83370000  1
  N  N275  1  0.30510000  0.42310000  0.32260000  1
  N  N276  1  0.32660000  0.31900000  0.63130000  1
  N  N277  1  0.33270000  0.87640000  0.64030000  1
  N  N278  1  0.44200000  0.94230000  0.33120000  1
  N  N279  1  0.55800000  0.05770000  0.66880000  1
  N  N280  1  0.66730000  0.12360000  0.35970000  1
  N  N281  1  0.67340000  0.68100000  0.36870000  1
  N  N282  1  0.69490000  0.57690000  0.67740000  1
  N  N283  1  0.72680000  0.72770000  0.16630000  1
  N  N284  1  0.76470000  0.19580000  0.15760000  1
  N  N285  1  0.87590000  0.76740000  0.86060000  1
  N  N286  1  0.90780000  0.29440000  0.84850000  1
  N  N287  1  0.95710000  0.40220000  0.64970000  1
  O  O288  1  0.01740000  0.25210000  0.72890000  1
  O  O289  1  0.02250000  0.68410000  0.77840000  1
  O  O290  1  0.02560000  0.11580000  0.25540000  1
  O  O291  1  0.04570000  0.42550000  0.27980000  1
  O  O292  1  0.05040000  0.42430000  0.76010000  1
  O  O293  1  0.05640000  0.46950000  0.18490000  1
  O  O294  1  0.16480000  0.93170000  0.73490000  1
  O  O295  1  0.19220000  0.19260000  0.74150000  1
  O  O296  1  0.19260000  0.74830000  0.73570000  1
  O  O297  1  0.24230000  0.39750000  0.72470000  1
  O  O298  1  0.24280000  0.03940000  0.79230000  1
  O  O299  1  0.24520000  0.58180000  0.23210000  1
  O  O300  1  0.25540000  0.31980000  0.22860000  1
  O  O301  1  0.27300000  0.69330000  0.29000000  1
  O  O302  1  0.27630000  0.07490000  0.69620000  1
  O  O303  1  0.29510000  0.16950000  0.27340000  1
  O  O304  1  0.36960000  0.40580000  0.16480000  1
  O  O305  1  0.37580000  0.54980000  0.16820000  1
  O  O306  1  0.44680000  0.91440000  0.76970000  1
  O  O307  1  0.46360000  0.89730000  0.18870000  1
  O  O308  1  0.46780000  0.05070000  0.16300000  1
  O  O309  1  0.46780000  0.19260000  0.74480000  1
  O  O310  1  0.47240000  0.65490000  0.29080000  1
  O  O311  1  0.49070000  0.20330000  0.27810000  1
  O  O312  1  0.50930000  0.79670000  0.72190000  1
  O  O313  1  0.52760000  0.34510000  0.70920000  1
  O  O314  1  0.53220000  0.80740000  0.25520000  1
  O  O315  1  0.53220000  0.94930000  0.83700000  1
  O  O316  1  0.53640000  0.10270000  0.81130000  1
  O  O317  1  0.55320000  0.08560000  0.23030000  1
  O  O318  1  0.62420000  0.45020000  0.83180000  1
  O  O319  1  0.63040000  0.59420000  0.83520000  1
  O  O320  1  0.70490000  0.83050000  0.72660000  1
  O  O321  1  0.72370000  0.92510000  0.30380000  1
  O  O322  1  0.72700000  0.30670000  0.71000000  1
  O  O323  1  0.74460000  0.68020000  0.77140000  1
  O  O324  1  0.75480000  0.41820000  0.76790000  1
  O  O325  1  0.75720000  0.96060000  0.20770000  1
  O  O326  1  0.75770000  0.60250000  0.27530000  1
  O  O327  1  0.80740000  0.25170000  0.26430000  1
  O  O328  1  0.80780000  0.80740000  0.25850000  1
  O  O329  1  0.83520000  0.06830000  0.26510000  1
  O  O330  1  0.94360000  0.53050000  0.81510000  1
  O  O331  1  0.94960000  0.57570000  0.23990000  1
  O  O332  1  0.95430000  0.57450000  0.72020000  1
  O  O333  1  0.97440000  0.88420000  0.74460000  1
  O  O334  1  0.97750000  0.31590000  0.22160000  1
  O  O335  1  0.98260000  0.74790000  0.27110000  1
