# generated using pymatgen
data_Tb2H12C15(NO2)6
_symmetry_space_group_name_H-M   'P 1'
_cell_length_a   10.54840000
_cell_length_b   10.54840000
_cell_length_c   14.72430000
_cell_angle_alpha   90.57040000
_cell_angle_beta   90.57040000
_cell_angle_gamma   105.63500000
_symmetry_Int_Tables_number   1
_chemical_formula_structural   Tb2H12C15(NO2)6
_chemical_formula_sum   'Tb4 H24 C30 N12 O24'
_cell_volume   1577.51807870
_cell_formula_units_Z   2
loop_
 _symmetry_equiv_pos_site_id
 _symmetry_equiv_pos_as_xyz
  1  'x, y, z'
loop_
 _atom_site_type_symbol
 _atom_site_label
 _atom_site_symmetry_multiplicity
 _atom_site_fract_x
 _atom_site_fract_y
 _atom_site_fract_z
 _atom_site_occupancy
  Tb  Tb0  1  0.92750000  0.82528000  0.94246000  1
  Tb  Tb1  1  0.67472000  0.57250000  0.55754000  1
  Tb  Tb2  1  0.32528000  0.42750000  0.44246000  1
  Tb  Tb3  1  0.07250000  0.17472000  0.05754000  1
  H  H4  1  0.85480000  0.94740000  0.24530000  1
  H  H5  1  0.71100000  0.94020000  0.21270000  1
  H  H6  1  0.17900000  0.88640000  0.25210000  1
  H  H7  1  0.29460000  0.85880000  0.19640000  1
  H  H8  1  0.15450000  0.80370000  0.66860000  1
  H  H9  1  0.35880000  0.79460000  0.69640000  1
  H  H10  1  0.55980000  0.78900000  0.28730000  1
  H  H11  1  0.38640000  0.67900000  0.75210000  1
  H  H12  1  0.03800000  0.67580000  0.65880000  1
  H  H13  1  0.30370000  0.65450000  0.16860000  1
  H  H14  1  0.55260000  0.64520000  0.25470000  1
  H  H15  1  0.17580000  0.53800000  0.15880000  1
  H  H16  1  0.82420000  0.46200000  0.84120000  1
  H  H17  1  0.44740000  0.35480000  0.74530000  1
  H  H18  1  0.69630000  0.34550000  0.83140000  1
  H  H19  1  0.96200000  0.32420000  0.34120000  1
  H  H20  1  0.61360000  0.32100000  0.24790000  1
  H  H21  1  0.44020000  0.21100000  0.71270000  1
  H  H22  1  0.64120000  0.20540000  0.30360000  1
  H  H23  1  0.84550000  0.19630000  0.33140000  1
  H  H24  1  0.70540000  0.14120000  0.80360000  1
  H  H25  1  0.82100000  0.11360000  0.74790000  1
  H  H26  1  0.28900000  0.05980000  0.78730000  1
  H  H27  1  0.14520000  0.05260000  0.75470000  1
  C  C28  1  0.15290000  0.90030000  0.11490000  1
  C  C29  1  0.78010000  0.89550000  0.21040000  1
  C  C30  1  0.82060000  0.88480000  0.11160000  1
  C  C31  1  0.19970000  0.84150000  0.19870000  1
  C  C32  1  0.05280000  0.75680000  0.78600000  1
  C  C33  1  0.10970000  0.72250000  0.69840000  1
  C  C34  1  0.60450000  0.71990000  0.28960000  1
  C  C35  1  0.34150000  0.69970000  0.69870000  1
  C  C36  1  0.81440000  0.68560000  0.25000000  1
  C  C37  1  0.61520000  0.67940000  0.38840000  1
  C  C38  1  0.01420000  0.65440000  0.23080000  1
  C  C39  1  0.40030000  0.65290000  0.61490000  1
  C  C40  1  0.22250000  0.60970000  0.19840000  1
  C  C41  1  0.25680000  0.55280000  0.28600000  1
  C  C42  1  0.15440000  0.51420000  0.73080000  1
  C  C43  1  0.84560000  0.48580000  0.26920000  1
  C  C44  1  0.74320000  0.44720000  0.71400000  1
  C  C45  1  0.77750000  0.39030000  0.80160000  1
  C  C46  1  0.59970000  0.34710000  0.38510000  1
  C  C47  1  0.98580000  0.34560000  0.76920000  1
  C  C48  1  0.38480000  0.32060000  0.61160000  1
  C  C49  1  0.18560000  0.31440000  0.75000000  1
  C  C50  1  0.65850000  0.30030000  0.30130000  1
  C  C51  1  0.39550000  0.28010000  0.71040000  1
  C  C52  1  0.89030000  0.27750000  0.30160000  1
  C  C53  1  0.94720000  0.24320000  0.21400000  1
  C  C54  1  0.80030000  0.15850000  0.80130000  1
  C  C55  1  0.17940000  0.11520000  0.88840000  1
  C  C56  1  0.21990000  0.10450000  0.78960000  1
  C  C57  1  0.84710000  0.09970000  0.88510000  1
  N  N58  1  0.73360000  0.76640000  0.25000000  1
  N  N59  1  0.94102000  0.74018000  0.23100000  1
  N  N60  1  0.14305000  0.70115000  0.20900000  1
  N  N61  1  0.20115000  0.64305000  0.70900000  1
  N  N62  1  0.75982000  0.55898000  0.26900000  1
  N  N63  1  0.97350000  0.52650000  0.25000000  1
  N  N64  1  0.02650000  0.47350000  0.75000000  1
  N  N65  1  0.24018000  0.44102000  0.73100000  1
  N  N66  1  0.79885000  0.35695000  0.29100000  1
  N  N67  1  0.85695000  0.29885000  0.79100000  1
  N  N68  1  0.05898000  0.25982000  0.76900000  1
  N  N69  1  0.26640000  0.23360000  0.75000000  1
  O  O70  1  0.91068000  0.97652000  0.07940000  1
  O  O71  1  0.81816000  0.97550000  0.88543000  1
  O  O72  1  0.09178000  0.82454000  0.05366000  1
  O  O73  1  0.94907000  0.79645000  0.78016000  1
  O  O74  1  0.76472000  0.78716000  0.06404000  1
  O  O75  1  0.10446000  0.75136000  0.86181000  1
  O  O76  1  0.71284000  0.73528000  0.43596000  1
  O  O77  1  0.52450000  0.68184000  0.61457000  1
  O  O78  1  0.25136000  0.60446000  0.36181000  1
  O  O79  1  0.32454000  0.59178000  0.55366000  1
  O  O80  1  0.52348000  0.58932000  0.42060000  1
  O  O81  1  0.70355000  0.55093000  0.71984000  1
  O  O82  1  0.29645000  0.44907000  0.28016000  1
  O  O83  1  0.47652000  0.41068000  0.57940000  1
  O  O84  1  0.67546000  0.40822000  0.44634000  1
  O  O85  1  0.74864000  0.39554000  0.63819000  1
  O  O86  1  0.47550000  0.31816000  0.38543000  1
  O  O87  1  0.28716000  0.26472000  0.56404000  1
  O  O88  1  0.89554000  0.24864000  0.13819000  1
  O  O89  1  0.23528000  0.21284000  0.93596000  1
  O  O90  1  0.05093000  0.20355000  0.21984000  1
  O  O91  1  0.90822000  0.17546000  0.94634000  1
  O  O92  1  0.18184000  0.02450000  0.11457000  1
  O  O93  1  0.08932000  0.02348000  0.92060000  1
