# generated using pymatgen
data_CdH12C16(NO2)3
_symmetry_space_group_name_H-M   'P 1'
_cell_length_a   10.61500000
_cell_length_b   14.58890000
_cell_length_c   29.85600000
_cell_angle_alpha   90.00000000
_cell_angle_beta   90.39500000
_cell_angle_gamma   90.00000000
_symmetry_Int_Tables_number   1
_chemical_formula_structural   CdH12C16(NO2)3
_chemical_formula_sum   'Cd8 H96 C128 N24 O48'
_cell_volume   4623.42532292
_cell_formula_units_Z   8
loop_
 _symmetry_equiv_pos_site_id
 _symmetry_equiv_pos_as_xyz
  1  'x, y, z'
loop_
 _atom_site_type_symbol
 _atom_site_label
 _atom_site_symmetry_multiplicity
 _atom_site_fract_x
 _atom_site_fract_y
 _atom_site_fract_z
 _atom_site_occupancy
  Cd  Cd0  1  0.18524000  0.04127000  0.74952000  1
  Cd  Cd1  1  0.18524000  0.45873000  0.24952000  1
  Cd  Cd2  1  0.35457000  0.16625000  0.22468000  1
  Cd  Cd3  1  0.35457000  0.33375000  0.72468000  1
  Cd  Cd4  1  0.64543000  0.66625000  0.27532000  1
  Cd  Cd5  1  0.64543000  0.83375000  0.77532000  1
  Cd  Cd6  1  0.81476000  0.54127000  0.75048000  1
  Cd  Cd7  1  0.81476000  0.95873000  0.25048000  1
  H  H8  1  0.03170000  0.19660000  0.57990000  1
  H  H9  1  0.03170000  0.30340000  0.07990000  1
  H  H10  1  0.06260000  0.66360000  0.38570000  1
  H  H11  1  0.06260000  0.83640000  0.88570000  1
  H  H12  1  0.06830000  0.08410000  0.40500000  1
  H  H13  1  0.06830000  0.41590000  0.90500000  1
  H  H14  1  0.07610000  0.69860000  0.88580000  1
  H  H15  1  0.07610000  0.80140000  0.38580000  1
  H  H16  1  0.09490000  0.59670000  0.94410000  1
  H  H17  1  0.09490000  0.90330000  0.44410000  1
  H  H18  1  0.10740000  0.62510000  0.65720000  1
  H  H19  1  0.10740000  0.87490000  0.15720000  1
  H  H20  1  0.11570000  0.00320000  0.27920000  1
  H  H21  1  0.11570000  0.49680000  0.77920000  1
  H  H22  1  0.11970000  0.67900000  0.97610000  1
  H  H23  1  0.11970000  0.82100000  0.47610000  1
  H  H24  1  0.12640000  0.06700000  0.64340000  1
  H  H25  1  0.12640000  0.43300000  0.14340000  1
  H  H26  1  0.14010000  0.02770000  0.17410000  1
  H  H27  1  0.14010000  0.47230000  0.67410000  1
  H  H28  1  0.18970000  0.02110000  0.57360000  1
  H  H29  1  0.18970000  0.47890000  0.07360000  1
  H  H30  1  0.21360000  0.58140000  0.01120000  1
  H  H31  1  0.21360000  0.91860000  0.51120000  1
  H  H32  1  0.25440000  0.05210000  0.37390000  1
  H  H33  1  0.25440000  0.44790000  0.87390000  1
  H  H34  1  0.25480000  0.13710000  0.44240000  1
  H  H35  1  0.25480000  0.36290000  0.94240000  1
  H  H36  1  0.25670000  0.53990000  0.90180000  1
  H  H37  1  0.25670000  0.96010000  0.40180000  1
  H  H38  1  0.26490000  0.04380000  0.46930000  1
  H  H39  1  0.26490000  0.45620000  0.96930000  1
  H  H40  1  0.27960000  0.16790000  0.11880000  1
  H  H41  1  0.27960000  0.33210000  0.61880000  1
  H  H42  1  0.30200000  0.57210000  0.79400000  1
  H  H43  1  0.30200000  0.92790000  0.29400000  1
  H  H44  1  0.34590000  0.13550000  0.49940000  1
  H  H45  1  0.34590000  0.36450000  0.99940000  1
  H  H46  1  0.35470000  0.21840000  0.05050000  1
  H  H47  1  0.35470000  0.28160000  0.55050000  1
  H  H48  1  0.38020000  0.58860000  0.19990000  1
  H  H49  1  0.38020000  0.91140000  0.69990000  1
  H  H50  1  0.43720000  0.59750000  0.88280000  1
  H  H51  1  0.43720000  0.90250000  0.38280000  1
  H  H52  1  0.45060000  0.63730000  0.13150000  1
  H  H53  1  0.45060000  0.86270000  0.63150000  1
  H  H54  1  0.47210000  0.15290000  0.68220000  1
  H  H55  1  0.47210000  0.34710000  0.18220000  1
  H  H56  1  0.52790000  0.65290000  0.81780000  1
  H  H57  1  0.52790000  0.84710000  0.31780000  1
  H  H58  1  0.54940000  0.13730000  0.36850000  1
  H  H59  1  0.54940000  0.36270000  0.86850000  1
  H  H60  1  0.56280000  0.09750000  0.61720000  1
  H  H61  1  0.56280000  0.40250000  0.11720000  1
  H  H62  1  0.61980000  0.08860000  0.30010000  1
  H  H63  1  0.61980000  0.41140000  0.80010000  1
  H  H64  1  0.64530000  0.71840000  0.44950000  1
  H  H65  1  0.64530000  0.78160000  0.94950000  1
  H  H66  1  0.65410000  0.63550000  0.00060000  1
  H  H67  1  0.65410000  0.86450000  0.50060000  1
  H  H68  1  0.69800000  0.07210000  0.70600000  1
  H  H69  1  0.69800000  0.42790000  0.20600000  1
  H  H70  1  0.72040000  0.66790000  0.38120000  1
  H  H71  1  0.72040000  0.83210000  0.88120000  1
  H  H72  1  0.73510000  0.54380000  0.03070000  1
  H  H73  1  0.73510000  0.95620000  0.53070000  1
  H  H74  1  0.74330000  0.03990000  0.59820000  1
  H  H75  1  0.74330000  0.46010000  0.09820000  1
  H  H76  1  0.74520000  0.63710000  0.05760000  1
  H  H77  1  0.74520000  0.86290000  0.55760000  1
  H  H78  1  0.74560000  0.55210000  0.12610000  1
  H  H79  1  0.74560000  0.94790000  0.62610000  1
  H  H80  1  0.78640000  0.08140000  0.48880000  1
  H  H81  1  0.78640000  0.41860000  0.98880000  1
  H  H82  1  0.81030000  0.52110000  0.92640000  1
  H  H83  1  0.81030000  0.97890000  0.42640000  1
  H  H84  1  0.85990000  0.52770000  0.32590000  1
  H  H85  1  0.85990000  0.97230000  0.82590000  1
  H  H86  1  0.87360000  0.56700000  0.85660000  1
  H  H87  1  0.87360000  0.93300000  0.35660000  1
  H  H88  1  0.88030000  0.17900000  0.52390000  1
  H  H89  1  0.88030000  0.32100000  0.02390000  1
  H  H90  1  0.88430000  0.50320000  0.22080000  1
  H  H91  1  0.88430000  0.99680000  0.72080000  1
  H  H92  1  0.89260000  0.12510000  0.84280000  1
  H  H93  1  0.89260000  0.37490000  0.34280000  1
  H  H94  1  0.90510000  0.09670000  0.55590000  1
  H  H95  1  0.90510000  0.40330000  0.05590000  1
  H  H96  1  0.92390000  0.19860000  0.61420000  1
  H  H97  1  0.92390000  0.30140000  0.11420000  1
  H  H98  1  0.93170000  0.58410000  0.09500000  1
  H  H99  1  0.93170000  0.91590000  0.59500000  1
  H  H100  1  0.93740000  0.16360000  0.11430000  1
  H  H101  1  0.93740000  0.33640000  0.61430000  1
  H  H102  1  0.96830000  0.69660000  0.92010000  1
  H  H103  1  0.96830000  0.80340000  0.42010000  1
  C  C104  1  0.00650000  0.69620000  0.78139000  1
  C  C105  1  0.00650000  0.80380000  0.28139000  1
  C  C106  1  0.05300000  0.71860000  0.91600000  1
  C  C107  1  0.05300000  0.78140000  0.41600000  1
  C  C108  1  0.11550000  0.56030000  0.78177000  1
  C  C109  1  0.11550000  0.93970000  0.28177000  1
  C  C110  1  0.11650000  0.74550000  0.78930000  1
  C  C111  1  0.11650000  0.75450000  0.28930000  1
  C  C112  1  0.12050000  0.65130000  0.29450000  1
  C  C113  1  0.12050000  0.84870000  0.79450000  1
  C  C114  1  0.12200000  0.24200000  0.72070000  1
  C  C115  1  0.12200000  0.25800000  0.22070000  1
  C  C116  1  0.13100000  0.65800000  0.94570000  1
  C  C117  1  0.13100000  0.84200000  0.44570000  1
  C  C118  1  0.18490000  0.60560000  0.66830000  1
  C  C119  1  0.18490000  0.89440000  0.16830000  1
  C  C120  1  0.19250000  0.02550000  0.64110000  1
  C  C121  1  0.19250000  0.47450000  0.14110000  1
  C  C122  1  0.20540000  0.51390000  0.67845000  1
  C  C123  1  0.20540000  0.98610000  0.17845000  1
  C  C124  1  0.22800000  0.60550000  0.79030000  1
  C  C125  1  0.22800000  0.89450000  0.29030000  1
  C  C126  1  0.22960000  0.02360000  0.40190000  1
  C  C127  1  0.22960000  0.47640000  0.90190000  1
  C  C128  1  0.23010000  0.50230000  0.09890000  1
  C  C129  1  0.23010000  0.99770000  0.59890000  1
  C  C130  1  0.28380000  0.07410000  0.44130000  1
  C  C131  1  0.28380000  0.42590000  0.94130000  1
  C  C132  1  0.29650000  0.60200000  0.01160000  1
  C  C133  1  0.29650000  0.89800000  0.51160000  1
  C  C134  1  0.32750000  0.56470000  0.09410000  1
  C  C135  1  0.32750000  0.93530000  0.59410000  1
  C  C136  1  0.34170000  0.56580000  0.17412000  1
  C  C137  1  0.34170000  0.93420000  0.67412000  1
  C  C138  1  0.34750000  0.20810000  0.11780000  1
  C  C139  1  0.34750000  0.29190000  0.61780000  1
  C  C140  1  0.35250000  0.63950000  0.97350000  1
  C  C141  1  0.35250000  0.86050000  0.47350000  1
  C  C142  1  0.36980000  0.59710000  0.05010000  1
  C  C143  1  0.36980000  0.90290000  0.55010000  1
  C  C144  1  0.38400000  0.59590000  0.13300000  1
  C  C145  1  0.38400000  0.90410000  0.63300000  1
  C  C146  1  0.38580000  0.24330000  0.07700000  1
  C  C147  1  0.38580000  0.25670000  0.57700000  1
  C  C148  1  0.39860000  0.63650000  0.69160000  1
  C  C149  1  0.39860000  0.86350000  0.19160000  1
  C  C150  1  0.41150000  0.54360000  0.69977000  1
  C  C151  1  0.41150000  0.95640000  0.19977000  1
  C  C152  1  0.43310000  0.12970000  0.49810000  1
  C  C153  1  0.43310000  0.37030000  0.99810000  1
  C  C154  1  0.46370000  0.18630000  0.65580000  1
  C  C155  1  0.46370000  0.31370000  0.15580000  1
  C  C156  1  0.46600000  0.00280000  0.78258000  1
  C  C157  1  0.46600000  0.49720000  0.28258000  1
  C  C158  1  0.47030000  0.18430000  0.57560000  1
  C  C159  1  0.47030000  0.31570000  0.07560000  1
  C  C160  1  0.48270000  0.64820000  0.96640000  1
  C  C161  1  0.48270000  0.85180000  0.46640000  1
  C  C162  1  0.49170000  0.64740000  0.88370000  1
  C  C163  1  0.49170000  0.85260000  0.38370000  1
  C  C164  1  0.49860000  0.60120000  0.03960000  1
  C  C165  1  0.49860000  0.89880000  0.53960000  1
  C  C166  1  0.49970000  0.70730000  0.70177000  1
  C  C167  1  0.49970000  0.79270000  0.20177000  1
  C  C168  1  0.50030000  0.20730000  0.79823000  1
  C  C169  1  0.50030000  0.29270000  0.29823000  1
  C  C170  1  0.50140000  0.10120000  0.46040000  1
  C  C171  1  0.50140000  0.39880000  0.96040000  1
  C  C172  1  0.50830000  0.14740000  0.61630000  1
  C  C173  1  0.50830000  0.35260000  0.11630000  1
  C  C174  1  0.51730000  0.14820000  0.53360000  1
  C  C175  1  0.51730000  0.35180000  0.03360000  1
  C  C176  1  0.52970000  0.68430000  0.92440000  1
  C  C177  1  0.52970000  0.81570000  0.42440000  1
  C  C178  1  0.53400000  0.50280000  0.71742000  1
  C  C179  1  0.53400000  0.99720000  0.21742000  1
  C  C180  1  0.53630000  0.68630000  0.84420000  1
  C  C181  1  0.53630000  0.81370000  0.34420000  1
  C  C182  1  0.56690000  0.62970000  0.00190000  1
  C  C183  1  0.56690000  0.87030000  0.50190000  1
  C  C184  1  0.58850000  0.04360000  0.80023000  1
  C  C185  1  0.58850000  0.45640000  0.30023000  1
  C  C186  1  0.60140000  0.13650000  0.80840000  1
  C  C187  1  0.60140000  0.36350000  0.30840000  1
  C  C188  1  0.61420000  0.74330000  0.42300000  1
  C  C189  1  0.61420000  0.75670000  0.92300000  1
  C  C190  1  0.61600000  0.09590000  0.36700000  1
  C  C191  1  0.61600000  0.40410000  0.86700000  1
  C  C192  1  0.63020000  0.09710000  0.44990000  1
  C  C193  1  0.63020000  0.40290000  0.94990000  1
  C  C194  1  0.64750000  0.13950000  0.52650000  1
  C  C195  1  0.64750000  0.36050000  0.02650000  1
  C  C196  1  0.65250000  0.70810000  0.38220000  1
  C  C197  1  0.65250000  0.79190000  0.88220000  1
  C  C198  1  0.65830000  0.06580000  0.32588000  1
  C  C199  1  0.65830000  0.43420000  0.82588000  1
  C  C200  1  0.67250000  0.06470000  0.40590000  1
  C  C201  1  0.67250000  0.43530000  0.90590000  1
  C  C202  1  0.70350000  0.10200000  0.48840000  1
  C  C203  1  0.70350000  0.39800000  0.98840000  1
  C  C204  1  0.71620000  0.57410000  0.05870000  1
  C  C205  1  0.71620000  0.92590000  0.55870000  1
  C  C206  1  0.76990000  0.00230000  0.40110000  1
  C  C207  1  0.76990000  0.49770000  0.90110000  1
  C  C208  1  0.77040000  0.52360000  0.09810000  1
  C  C209  1  0.77040000  0.97640000  0.59810000  1
  C  C210  1  0.77200000  0.10550000  0.70970000  1
  C  C211  1  0.77200000  0.39450000  0.20970000  1
  C  C212  1  0.79460000  0.01390000  0.82155000  1
  C  C213  1  0.79460000  0.48610000  0.32155000  1
  C  C214  1  0.80750000  0.52550000  0.85890000  1
  C  C215  1  0.80750000  0.97450000  0.35890000  1
  C  C216  1  0.81510000  0.10560000  0.83170000  1
  C  C217  1  0.81510000  0.39440000  0.33170000  1
  C  C218  1  0.86900000  0.15800000  0.55430000  1
  C  C219  1  0.86900000  0.34200000  0.05430000  1
  C  C220  1  0.87800000  0.74200000  0.77930000  1
  C  C221  1  0.87800000  0.75800000  0.27930000  1
  C  C222  1  0.87950000  0.15130000  0.20550000  1
  C  C223  1  0.87950000  0.34870000  0.70550000  1
  C  C224  1  0.88350000  0.24550000  0.71070000  1
  C  C225  1  0.88350000  0.25450000  0.21070000  1
  C  C226  1  0.88450000  0.06030000  0.71823000  1
  C  C227  1  0.88450000  0.43970000  0.21823000  1
  C  C228  1  0.94700000  0.21860000  0.58400000  1
  C  C229  1  0.94700000  0.28140000  0.08400000  1
  C  C230  1  0.99350000  0.19620000  0.71861000  1
  C  C231  1  0.99350000  0.30380000  0.21861000  1
  N  N232  1  0.00640000  0.60550000  0.77717000  1
  N  N233  1  0.00640000  0.89450000  0.27717000  1
  N  N234  1  0.23040000  0.69860000  0.79320000  1
  N  N235  1  0.23040000  0.80140000  0.29320000  1
  N  N236  1  0.24720000  0.50480000  0.17849000  1
  N  N237  1  0.24720000  0.99520000  0.67849000  1
  N  N238  1  0.28230000  0.66790000  0.67520000  1
  N  N239  1  0.28230000  0.83210000  0.17520000  1
  N  N240  1  0.31620000  0.01670000  0.19421000  1
  N  N241  1  0.31620000  0.48330000  0.69421000  1
  N  N242  1  0.41050000  0.23270000  0.15790000  1
  N  N243  1  0.41050000  0.26730000  0.65790000  1
  N  N244  1  0.58950000  0.73270000  0.34210000  1
  N  N245  1  0.58950000  0.76730000  0.84210000  1
  N  N246  1  0.68380000  0.51670000  0.30579000  1
  N  N247  1  0.68380000  0.98330000  0.80579000  1
  N  N248  1  0.71770000  0.16790000  0.82480000  1
  N  N249  1  0.71770000  0.33210000  0.32480000  1
  N  N250  1  0.75280000  0.00480000  0.32151000  1
  N  N251  1  0.75280000  0.49520000  0.82151000  1
  N  N252  1  0.76960000  0.19860000  0.70680000  1
  N  N253  1  0.76960000  0.30140000  0.20680000  1
  N  N254  1  0.99360000  0.10550000  0.72283000  1
  N  N255  1  0.99360000  0.39450000  0.22283000  1
  O  O256  1  0.03650000  0.67950000  0.41030000  1
  O  O257  1  0.03650000  0.82050000  0.91030000  1
  O  O258  1  0.09070000  0.03080000  0.40860000  1
  O  O259  1  0.09070000  0.46920000  0.90860000  1
  O  O260  1  0.12020000  0.60850000  0.25824000  1
  O  O261  1  0.12020000  0.89150000  0.75824000  1
  O  O262  1  0.13040000  0.17620000  0.20943000  1
  O  O263  1  0.13040000  0.32380000  0.70943000  1
  O  O264  1  0.13160000  0.61800000  0.33315000  1
  O  O265  1  0.13160000  0.88200000  0.83315000  1
  O  O266  1  0.21570000  0.19460000  0.73328000  1
  O  O267  1  0.21570000  0.30540000  0.23328000  1
  O  O268  1  0.27140000  0.64730000  0.93870000  1
  O  O269  1  0.27140000  0.85270000  0.43870000  1
  O  O270  1  0.37540000  0.05840000  0.78067000  1
  O  O271  1  0.37540000  0.44160000  0.28067000  1
  O  O272  1  0.42020000  0.06800000  0.43010000  1
  O  O273  1  0.42020000  0.43200000  0.93010000  1
  O  O274  1  0.43660000  0.23730000  0.83075000  1
  O  O275  1  0.43660000  0.26270000  0.33075000  1
  O  O276  1  0.46170000  0.57970000  0.27233000  1
  O  O277  1  0.46170000  0.92030000  0.77233000  1
  O  O278  1  0.49660000  0.23550000  0.75899000  1
  O  O279  1  0.49660000  0.26450000  0.25899000  1
  O  O280  1  0.50340000  0.73550000  0.74101000  1
  O  O281  1  0.50340000  0.76450000  0.24101000  1
  O  O282  1  0.53830000  0.07970000  0.22767000  1
  O  O283  1  0.53830000  0.42030000  0.72767000  1
  O  O284  1  0.56340000  0.73730000  0.66925000  1
  O  O285  1  0.56340000  0.76270000  0.16925000  1
  O  O286  1  0.57980000  0.56800000  0.06990000  1
  O  O287  1  0.57980000  0.93200000  0.56990000  1
  O  O288  1  0.62460000  0.55840000  0.71933000  1
  O  O289  1  0.62460000  0.94160000  0.21933000  1
  O  O290  1  0.72860000  0.14730000  0.56130000  1
  O  O291  1  0.72860000  0.35270000  0.06130000  1
  O  O292  1  0.78430000  0.69460000  0.76672000  1
  O  O293  1  0.78430000  0.80540000  0.26672000  1
  O  O294  1  0.86840000  0.11800000  0.16685000  1
  O  O295  1  0.86840000  0.38200000  0.66685000  1
  O  O296  1  0.86960000  0.67620000  0.29057000  1
  O  O297  1  0.86960000  0.82380000  0.79057000  1
  O  O298  1  0.87980000  0.10850000  0.24176000  1
  O  O299  1  0.87980000  0.39150000  0.74176000  1
  O  O300  1  0.90930000  0.53080000  0.09140000  1
  O  O301  1  0.90930000  0.96920000  0.59140000  1
  O  O302  1  0.96350000  0.17950000  0.08970000  1
  O  O303  1  0.96350000  0.32050000  0.58970000  1
