# generated using pymatgen
data_NiH10(CN)12
_symmetry_space_group_name_H-M   'P 1'
_cell_length_a   7.54230000
_cell_length_b   12.53870000
_cell_length_c   13.68870000
_cell_angle_alpha   90.00000000
_cell_angle_beta   105.99100000
_cell_angle_gamma   90.00000000
_symmetry_Int_Tables_number   1
_chemical_formula_structural   NiH10(CN)12
_chemical_formula_sum   'Ni2 H20 C24 N24'
_cell_volume   1244.45647776
_cell_formula_units_Z   2
loop_
 _symmetry_equiv_pos_site_id
 _symmetry_equiv_pos_as_xyz
  1  'x, y, z'
loop_
 _atom_site_type_symbol
 _atom_site_label
 _atom_site_symmetry_multiplicity
 _atom_site_fract_x
 _atom_site_fract_y
 _atom_site_fract_z
 _atom_site_occupancy
  Ni  Ni0  1  0.00000000  0.50000000  0.50000000  1
  Ni  Ni1  1  0.50000000  0.50000000  0.50000000  1
  H  H2  1  0.06370000  0.26500000  0.60660000  1
  H  H3  1  0.06370000  0.73500000  0.60660000  1
  H  H4  1  0.06800000  0.08800000  0.63800000  1
  H  H5  1  0.06800000  0.91200000  0.63800000  1
  H  H6  1  0.21850000  0.41930000  0.90880000  1
  H  H7  1  0.30970000  0.41930000  0.09120000  1
  H  H8  1  0.43000000  0.08800000  0.36200000  1
  H  H9  1  0.43000000  0.91200000  0.36200000  1
  H  H10  1  0.45710000  0.26500000  0.39340000  1
  H  H11  1  0.45710000  0.73500000  0.39340000  1
  H  H12  1  0.54290000  0.26500000  0.60660000  1
  H  H13  1  0.54290000  0.73500000  0.60660000  1
  H  H14  1  0.57000000  0.08800000  0.63800000  1
  H  H15  1  0.57000000  0.91200000  0.63800000  1
  H  H16  1  0.69030000  0.58070000  0.90880000  1
  H  H17  1  0.78150000  0.58070000  0.09120000  1
  H  H18  1  0.93200000  0.08800000  0.36200000  1
  H  H19  1  0.93200000  0.91200000  0.36200000  1
  H  H20  1  0.93630000  0.26500000  0.39340000  1
  H  H21  1  0.93630000  0.73500000  0.39340000  1
  C  C22  1  0.02267000  0.05490000  0.36254000  1
  C  C23  1  0.02267000  0.94510000  0.36254000  1
  C  C24  1  0.18296000  0.11210000  0.36592000  1
  C  C25  1  0.18296000  0.88790000  0.36592000  1
  C  C26  1  0.19229000  0.22670000  0.38458000  1
  C  C27  1  0.19229000  0.77330000  0.38458000  1
  C  C28  1  0.33180000  0.45880000  0.94640000  1
  C  C29  1  0.33987000  0.05490000  0.36254000  1
  C  C30  1  0.33987000  0.94510000  0.36254000  1
  C  C31  1  0.38540000  0.45880000  0.05360000  1
  C  C32  1  0.39128000  0.50000000  0.78256000  1
  C  C33  1  0.44730000  0.50000000  0.89460000  1
  C  C34  1  0.55270000  0.50000000  0.10540000  1
  C  C35  1  0.60872000  0.50000000  0.21744000  1
  C  C36  1  0.61460000  0.54120000  0.94640000  1
  C  C37  1  0.66013000  0.05490000  0.63746000  1
  C  C38  1  0.66013000  0.94510000  0.63746000  1
  C  C39  1  0.66820000  0.54120000  0.05360000  1
  C  C40  1  0.80771000  0.22670000  0.61542000  1
  C  C41  1  0.80771000  0.77330000  0.61542000  1
  C  C42  1  0.81704000  0.11210000  0.63408000  1
  C  C43  1  0.81704000  0.88790000  0.63408000  1
  C  C44  1  0.97733000  0.05490000  0.63746000  1
  C  C45  1  0.97733000  0.94510000  0.63746000  1
  N  N46  1  0.05374000  0.28547000  0.40128000  1
  N  N47  1  0.05374000  0.71453000  0.40128000  1
  N  N48  1  0.12812000  0.38054000  0.43204000  1
  N  N49  1  0.12812000  0.61946000  0.43204000  1
  N  N50  1  0.21524000  0.50000000  0.72508000  1
  N  N51  1  0.22654000  0.50000000  0.62948000  1
  N  N52  1  0.30392000  0.38054000  0.43204000  1
  N  N53  1  0.30392000  0.61946000  0.43204000  1
  N  N54  1  0.34754000  0.28547000  0.40128000  1
  N  N55  1  0.34754000  0.71453000  0.40128000  1
  N  N56  1  0.40294000  0.50000000  0.62948000  1
  N  N57  1  0.49016000  0.50000000  0.27492000  1
  N  N58  1  0.50984000  0.50000000  0.72508000  1
  N  N59  1  0.59706000  0.50000000  0.37052000  1
  N  N60  1  0.65246000  0.28547000  0.59872000  1
  N  N61  1  0.65246000  0.71453000  0.59872000  1
  N  N62  1  0.69608000  0.38054000  0.56796000  1
  N  N63  1  0.69608000  0.61946000  0.56796000  1
  N  N64  1  0.77346000  0.50000000  0.37052000  1
  N  N65  1  0.78476000  0.50000000  0.27492000  1
  N  N66  1  0.87188000  0.38054000  0.56796000  1
  N  N67  1  0.87188000  0.61946000  0.56796000  1
  N  N68  1  0.94626000  0.28547000  0.59872000  1
  N  N69  1  0.94626000  0.71453000  0.59872000  1
