# generated using pymatgen
data_ZnH3C7NO4
_symmetry_space_group_name_H-M   'P 1'
_cell_length_a   10.82850000
_cell_length_b   11.19330000
_cell_length_c   14.79900000
_cell_angle_alpha   90.00000000
_cell_angle_beta   90.00000000
_cell_angle_gamma   90.00000000
_symmetry_Int_Tables_number   1
_chemical_formula_structural   ZnH3C7NO4
_chemical_formula_sum   'Zn4 H12 C28 N4 O16'
_cell_volume   1793.73719929
_cell_formula_units_Z   4
loop_
 _symmetry_equiv_pos_site_id
 _symmetry_equiv_pos_as_xyz
  1  'x, y, z'
loop_
 _atom_site_type_symbol
 _atom_site_label
 _atom_site_symmetry_multiplicity
 _atom_site_fract_x
 _atom_site_fract_y
 _atom_site_fract_z
 _atom_site_occupancy
  Zn  Zn0  1  0.15721000  0.18423000  0.65840000  1
  Zn  Zn1  1  0.34279000  0.81577000  0.15840000  1
  Zn  Zn2  1  0.65721000  0.31577000  0.34160000  1
  Zn  Zn3  1  0.84279000  0.68423000  0.84160000  1
  H  H4  1  0.02200000  0.96370000  0.70120000  1
  H  H5  1  0.06140000  0.72610000  0.96670000  1
  H  H6  1  0.18850000  0.53450000  0.42010000  1
  H  H7  1  0.31150000  0.46550000  0.92010000  1
  H  H8  1  0.43860000  0.27390000  0.46670000  1
  H  H9  1  0.47800000  0.03630000  0.20120000  1
  H  H10  1  0.52200000  0.53630000  0.29880000  1
  H  H11  1  0.56140000  0.77390000  0.03330000  1
  H  H12  1  0.68850000  0.96550000  0.57990000  1
  H  H13  1  0.81150000  0.03450000  0.07990000  1
  H  H14  1  0.93860000  0.22610000  0.53330000  1
  H  H15  1  0.97800000  0.46370000  0.79880000  1
  C  C16  1  0.03564000  0.50091000  0.83816000  1
  C  C17  1  0.08396000  0.65399000  0.93704000  1
  C  C18  1  0.14980000  0.44821000  0.85045000  1
  C  C19  1  0.18420000  0.33910000  0.79602000  1
  C  C20  1  0.19895000  0.60510000  0.95414000  1
  C  C21  1  0.21200000  0.33560000  0.51874000  1
  C  C22  1  0.23280000  0.50050000  0.90980000  1
  C  C23  1  0.26720000  0.49950000  0.40980000  1
  C  C24  1  0.28800000  0.66440000  0.01874000  1
  C  C25  1  0.30105000  0.39490000  0.45414000  1
  C  C26  1  0.31580000  0.66090000  0.29602000  1
  C  C27  1  0.35020000  0.55179000  0.35045000  1
  C  C28  1  0.41604000  0.34601000  0.43704000  1
  C  C29  1  0.46436000  0.49909000  0.33816000  1
  C  C30  1  0.53564000  0.99909000  0.16184000  1
  C  C31  1  0.58396000  0.84601000  0.06296000  1
  C  C32  1  0.64980000  0.05179000  0.14955000  1
  C  C33  1  0.68420000  0.16090000  0.20398000  1
  C  C34  1  0.69895000  0.89490000  0.04586000  1
  C  C35  1  0.71200000  0.16440000  0.48126000  1
  C  C36  1  0.73280000  0.99950000  0.09020000  1
  C  C37  1  0.76720000  0.00050000  0.59020000  1
  C  C38  1  0.78800000  0.83560000  0.98126000  1
  C  C39  1  0.80105000  0.10510000  0.54586000  1
  C  C40  1  0.81580000  0.83910000  0.70398000  1
  C  C41  1  0.85020000  0.94821000  0.64955000  1
  C  C42  1  0.91604000  0.15399000  0.56296000  1
  C  C43  1  0.96436000  0.00091000  0.66184000  1
  N  N44  1  0.00299000  0.60311000  0.87997000  1
  N  N45  1  0.49701000  0.39689000  0.37997000  1
  N  N46  1  0.50299000  0.89689000  0.12003000  1
  N  N47  1  0.99701000  0.10311000  0.62003000  1
  O  O48  1  0.09696000  0.29613000  0.74790000  1
  O  O49  1  0.10602000  0.37047000  0.52490000  1
  O  O50  1  0.21025000  0.69836000  0.29872000  1
  O  O51  1  0.23995000  0.75282000  0.06238000  1
  O  O52  1  0.26005000  0.24718000  0.56238000  1
  O  O53  1  0.28975000  0.30164000  0.79872000  1
  O  O54  1  0.39398000  0.62953000  0.02490000  1
  O  O55  1  0.40304000  0.70387000  0.24790000  1
  O  O56  1  0.59696000  0.20387000  0.25210000  1
  O  O57  1  0.60602000  0.12953000  0.47510000  1
  O  O58  1  0.71025000  0.80164000  0.70128000  1
  O  O59  1  0.73995000  0.74718000  0.93762000  1
  O  O60  1  0.76005000  0.25282000  0.43762000  1
  O  O61  1  0.78975000  0.19836000  0.20128000  1
  O  O62  1  0.89398000  0.87047000  0.97510000  1
  O  O63  1  0.90304000  0.79613000  0.75210000  1
