# generated using pymatgen
data_YbH27(C11O2)3
_symmetry_space_group_name_H-M   'P 1'
_cell_length_a   5.77210000
_cell_length_b   32.76260000
_cell_length_c   34.95000000
_cell_angle_alpha   90.00000000
_cell_angle_beta   90.00000000
_cell_angle_gamma   90.00000000
_symmetry_Int_Tables_number   1
_chemical_formula_structural   YbH27(C11O2)3
_chemical_formula_sum   'Yb8 H216 C264 O48'
_cell_volume   6609.35967093
_cell_formula_units_Z   8
loop_
 _symmetry_equiv_pos_site_id
 _symmetry_equiv_pos_as_xyz
  1  'x, y, z'
loop_
 _atom_site_type_symbol
 _atom_site_label
 _atom_site_symmetry_multiplicity
 _atom_site_fract_x
 _atom_site_fract_y
 _atom_site_fract_z
 _atom_site_occupancy
  Yb  Yb0  1  0.61990000  0.04371000  0.25000000  1
  Yb  Yb1  1  0.94630000  0.18115000  0.25000000  1
  Yb  Yb2  1  0.44630000  0.31885000  0.75000000  1
  Yb  Yb3  1  0.11990000  0.45629000  0.75000000  1
  Yb  Yb4  1  0.88010000  0.54371000  0.25000000  1
  Yb  Yb5  1  0.55370000  0.68115000  0.25000000  1
  Yb  Yb6  1  0.05370000  0.81885000  0.75000000  1
  Yb  Yb7  1  0.38010000  0.95629000  0.75000000  1
  H  H8  1  0.68170000  0.00230000  0.09110000  1
  H  H9  1  0.68170000  0.00230000  0.40890000  1
  H  H10  1  0.74720000  0.02610000  0.51610000  1
  H  H11  1  0.74720000  0.02610000  0.98390000  1
  H  H12  1  0.64260000  0.02950000  0.65230000  1
  H  H13  1  0.64260000  0.02950000  0.84770000  1
  H  H14  1  0.10000000  0.03330000  0.52970000  1
  H  H15  1  0.10000000  0.03330000  0.97030000  1
  H  H16  1  0.78150000  0.03450000  0.14710000  1
  H  H17  1  0.78150000  0.03450000  0.35290000  1
  H  H18  1  0.80820000  0.04100000  0.02530000  1
  H  H19  1  0.80820000  0.04100000  0.47470000  1
  H  H20  1  0.55640000  0.04670000  0.00930000  1
  H  H21  1  0.55640000  0.04670000  0.49070000  1
  H  H22  1  0.26860000  0.06150000  0.55280000  1
  H  H23  1  0.26860000  0.06150000  0.94720000  1
  H  H24  1  0.74030000  0.06180000  0.59620000  1
  H  H25  1  0.74030000  0.06180000  0.90380000  1
  H  H26  1  0.23940000  0.08710000  0.08460000  1
  H  H27  1  0.23940000  0.08710000  0.41540000  1
  H  H28  1  0.30810000  0.09070000  0.14940000  1
  H  H29  1  0.30810000  0.09070000  0.35060000  1
  H  H30  1  0.38070000  0.09540000  0.01850000  1
  H  H31  1  0.38070000  0.09540000  0.48150000  1
  H  H32  1  0.21140000  0.10810000  0.60020000  1
  H  H33  1  0.21140000  0.10810000  0.89980000  1
  H  H34  1  0.37630000  0.12800000  0.56980000  1
  H  H35  1  0.37630000  0.12800000  0.93020000  1
  H  H36  1  0.36220000  0.14300000  0.02080000  1
  H  H37  1  0.36220000  0.14300000  0.47920000  1
  H  H38  1  0.83000000  0.14570000  0.06520000  1
  H  H39  1  0.83000000  0.14570000  0.43480000  1
  H  H40  1  0.90240000  0.14930000  0.13010000  1
  H  H41  1  0.90240000  0.14930000  0.36990000  1
  H  H42  1  0.22000000  0.15570000  0.59570000  1
  H  H43  1  0.22000000  0.15570000  0.90430000  1
  H  H44  1  0.64620000  0.18720000  0.59320000  1
  H  H45  1  0.64620000  0.18720000  0.90680000  1
  H  H46  1  0.48490000  0.19420000  0.01040000  1
  H  H47  1  0.48490000  0.19420000  0.48960000  1
  H  H48  1  0.19050000  0.20230000  0.55740000  1
  H  H49  1  0.19050000  0.20230000  0.94260000  1
  H  H50  1  0.52030000  0.20650000  0.15190000  1
  H  H51  1  0.52030000  0.20650000  0.34810000  1
  H  H52  1  0.72710000  0.21470000  0.01700000  1
  H  H53  1  0.72710000  0.21470000  0.48300000  1
  H  H54  1  0.48150000  0.21760000  0.64590000  1
  H  H55  1  0.48150000  0.21760000  0.85410000  1
  H  H56  1  0.60310000  0.21880000  0.52270000  1
  H  H57  1  0.60310000  0.21880000  0.97730000  1
  H  H58  1  0.00430000  0.22440000  0.53230000  1
  H  H59  1  0.00430000  0.22440000  0.96770000  1
  H  H60  1  0.67100000  0.23510000  0.09650000  1
  H  H61  1  0.67100000  0.23510000  0.40350000  1
  H  H62  1  0.17100000  0.26490000  0.59650000  1
  H  H63  1  0.17100000  0.26490000  0.90350000  1
  H  H64  1  0.50430000  0.27560000  0.03230000  1
  H  H65  1  0.50430000  0.27560000  0.46770000  1
  H  H66  1  0.10310000  0.28120000  0.02270000  1
  H  H67  1  0.10310000  0.28120000  0.47730000  1
  H  H68  1  0.98150000  0.28240000  0.14590000  1
  H  H69  1  0.98150000  0.28240000  0.35410000  1
  H  H70  1  0.22710000  0.28530000  0.51700000  1
  H  H71  1  0.22710000  0.28530000  0.98300000  1
  H  H72  1  0.02030000  0.29350000  0.65190000  1
  H  H73  1  0.02030000  0.29350000  0.84810000  1
  H  H74  1  0.69050000  0.29770000  0.05740000  1
  H  H75  1  0.69050000  0.29770000  0.44260000  1
  H  H76  1  0.98490000  0.30580000  0.51040000  1
  H  H77  1  0.98490000  0.30580000  0.98960000  1
  H  H78  1  0.14620000  0.31280000  0.09320000  1
  H  H79  1  0.14620000  0.31280000  0.40680000  1
  H  H80  1  0.72000000  0.34430000  0.09570000  1
  H  H81  1  0.72000000  0.34430000  0.40430000  1
  H  H82  1  0.40240000  0.35070000  0.63010000  1
  H  H83  1  0.40240000  0.35070000  0.86990000  1
  H  H84  1  0.33000000  0.35430000  0.56520000  1
  H  H85  1  0.33000000  0.35430000  0.93480000  1
  H  H86  1  0.86220000  0.35700000  0.52080000  1
  H  H87  1  0.86220000  0.35700000  0.97920000  1
  H  H88  1  0.87630000  0.37200000  0.06980000  1
  H  H89  1  0.87630000  0.37200000  0.43020000  1
  H  H90  1  0.71140000  0.39190000  0.10020000  1
  H  H91  1  0.71140000  0.39190000  0.39980000  1
  H  H92  1  0.88070000  0.40460000  0.51850000  1
  H  H93  1  0.88070000  0.40460000  0.98150000  1
  H  H94  1  0.80810000  0.40930000  0.64940000  1
  H  H95  1  0.80810000  0.40930000  0.85060000  1
  H  H96  1  0.73940000  0.41290000  0.58460000  1
  H  H97  1  0.73940000  0.41290000  0.91540000  1
  H  H98  1  0.24030000  0.43820000  0.09620000  1
  H  H99  1  0.24030000  0.43820000  0.40380000  1
  H  H100  1  0.76860000  0.43850000  0.05280000  1
  H  H101  1  0.76860000  0.43850000  0.44720000  1
  H  H102  1  0.05640000  0.45330000  0.50930000  1
  H  H103  1  0.05640000  0.45330000  0.99070000  1
  H  H104  1  0.30820000  0.45900000  0.52530000  1
  H  H105  1  0.30820000  0.45900000  0.97470000  1
  H  H106  1  0.28150000  0.46550000  0.64710000  1
  H  H107  1  0.28150000  0.46550000  0.85290000  1
  H  H108  1  0.60000000  0.46670000  0.02970000  1
  H  H109  1  0.60000000  0.46670000  0.47030000  1
  H  H110  1  0.14260000  0.47050000  0.15230000  1
  H  H111  1  0.14260000  0.47050000  0.34770000  1
  H  H112  1  0.24720000  0.47390000  0.01610000  1
  H  H113  1  0.24720000  0.47390000  0.48390000  1
  H  H114  1  0.18170000  0.49770000  0.59110000  1
  H  H115  1  0.18170000  0.49770000  0.90890000  1
  H  H116  1  0.81830000  0.50230000  0.09110000  1
  H  H117  1  0.81830000  0.50230000  0.40890000  1
  H  H118  1  0.75280000  0.52610000  0.51610000  1
  H  H119  1  0.75280000  0.52610000  0.98390000  1
  H  H120  1  0.85740000  0.52950000  0.65230000  1
  H  H121  1  0.85740000  0.52950000  0.84770000  1
  H  H122  1  0.40000000  0.53330000  0.52970000  1
  H  H123  1  0.40000000  0.53330000  0.97030000  1
  H  H124  1  0.71850000  0.53450000  0.14710000  1
  H  H125  1  0.71850000  0.53450000  0.35290000  1
  H  H126  1  0.69180000  0.54100000  0.02530000  1
  H  H127  1  0.69180000  0.54100000  0.47470000  1
  H  H128  1  0.94360000  0.54670000  0.00930000  1
  H  H129  1  0.94360000  0.54670000  0.49070000  1
  H  H130  1  0.23140000  0.56150000  0.55280000  1
  H  H131  1  0.23140000  0.56150000  0.94720000  1
  H  H132  1  0.75970000  0.56180000  0.59620000  1
  H  H133  1  0.75970000  0.56180000  0.90380000  1
  H  H134  1  0.26060000  0.58710000  0.08460000  1
  H  H135  1  0.26060000  0.58710000  0.41540000  1
  H  H136  1  0.19190000  0.59070000  0.14940000  1
  H  H137  1  0.19190000  0.59070000  0.35060000  1
  H  H138  1  0.11930000  0.59540000  0.01850000  1
  H  H139  1  0.11930000  0.59540000  0.48150000  1
  H  H140  1  0.28860000  0.60810000  0.60020000  1
  H  H141  1  0.28860000  0.60810000  0.89980000  1
  H  H142  1  0.12370000  0.62800000  0.56980000  1
  H  H143  1  0.12370000  0.62800000  0.93020000  1
  H  H144  1  0.13780000  0.64300000  0.02080000  1
  H  H145  1  0.13780000  0.64300000  0.47920000  1
  H  H146  1  0.67000000  0.64570000  0.06520000  1
  H  H147  1  0.67000000  0.64570000  0.43480000  1
  H  H148  1  0.59760000  0.64930000  0.13010000  1
  H  H149  1  0.59760000  0.64930000  0.36990000  1
  H  H150  1  0.28000000  0.65570000  0.59570000  1
  H  H151  1  0.28000000  0.65570000  0.90430000  1
  H  H152  1  0.85380000  0.68720000  0.59320000  1
  H  H153  1  0.85380000  0.68720000  0.90680000  1
  H  H154  1  0.01510000  0.69420000  0.01040000  1
  H  H155  1  0.01510000  0.69420000  0.48960000  1
  H  H156  1  0.30950000  0.70230000  0.55740000  1
  H  H157  1  0.30950000  0.70230000  0.94260000  1
  H  H158  1  0.97970000  0.70650000  0.15190000  1
  H  H159  1  0.97970000  0.70650000  0.34810000  1
  H  H160  1  0.77290000  0.71470000  0.01700000  1
  H  H161  1  0.77290000  0.71470000  0.48300000  1
  H  H162  1  0.01850000  0.71760000  0.64590000  1
  H  H163  1  0.01850000  0.71760000  0.85410000  1
  H  H164  1  0.89690000  0.71880000  0.52270000  1
  H  H165  1  0.89690000  0.71880000  0.97730000  1
  H  H166  1  0.49570000  0.72440000  0.53230000  1
  H  H167  1  0.49570000  0.72440000  0.96770000  1
  H  H168  1  0.82900000  0.73510000  0.09650000  1
  H  H169  1  0.82900000  0.73510000  0.40350000  1
  H  H170  1  0.32900000  0.76490000  0.59650000  1
  H  H171  1  0.32900000  0.76490000  0.90350000  1
  H  H172  1  0.99570000  0.77560000  0.03230000  1
  H  H173  1  0.99570000  0.77560000  0.46770000  1
  H  H174  1  0.39690000  0.78120000  0.02270000  1
  H  H175  1  0.39690000  0.78120000  0.47730000  1
  H  H176  1  0.51850000  0.78240000  0.14590000  1
  H  H177  1  0.51850000  0.78240000  0.35410000  1
  H  H178  1  0.27290000  0.78530000  0.51700000  1
  H  H179  1  0.27290000  0.78530000  0.98300000  1
  H  H180  1  0.47970000  0.79350000  0.65190000  1
  H  H181  1  0.47970000  0.79350000  0.84810000  1
  H  H182  1  0.80950000  0.79770000  0.05740000  1
  H  H183  1  0.80950000  0.79770000  0.44260000  1
  H  H184  1  0.51510000  0.80580000  0.51040000  1
  H  H185  1  0.51510000  0.80580000  0.98960000  1
  H  H186  1  0.35380000  0.81280000  0.09320000  1
  H  H187  1  0.35380000  0.81280000  0.40680000  1
  H  H188  1  0.78000000  0.84430000  0.09570000  1
  H  H189  1  0.78000000  0.84430000  0.40430000  1
  H  H190  1  0.09760000  0.85070000  0.63010000  1
  H  H191  1  0.09760000  0.85070000  0.86990000  1
  H  H192  1  0.17000000  0.85430000  0.56520000  1
  H  H193  1  0.17000000  0.85430000  0.93480000  1
  H  H194  1  0.63780000  0.85700000  0.52080000  1
  H  H195  1  0.63780000  0.85700000  0.97920000  1
  H  H196  1  0.62370000  0.87200000  0.06980000  1
  H  H197  1  0.62370000  0.87200000  0.43020000  1
  H  H198  1  0.78860000  0.89190000  0.10020000  1
  H  H199  1  0.78860000  0.89190000  0.39980000  1
  H  H200  1  0.61930000  0.90460000  0.51850000  1
  H  H201  1  0.61930000  0.90460000  0.98150000  1
  H  H202  1  0.69190000  0.90930000  0.64940000  1
  H  H203  1  0.69190000  0.90930000  0.85060000  1
  H  H204  1  0.76060000  0.91290000  0.58460000  1
  H  H205  1  0.76060000  0.91290000  0.91540000  1
  H  H206  1  0.25970000  0.93820000  0.09620000  1
  H  H207  1  0.25970000  0.93820000  0.40380000  1
  H  H208  1  0.73140000  0.93850000  0.05280000  1
  H  H209  1  0.73140000  0.93850000  0.44720000  1
  H  H210  1  0.44360000  0.95330000  0.50930000  1
  H  H211  1  0.44360000  0.95330000  0.99070000  1
  H  H212  1  0.19180000  0.95900000  0.52530000  1
  H  H213  1  0.19180000  0.95900000  0.97470000  1
  H  H214  1  0.21850000  0.96550000  0.64710000  1
  H  H215  1  0.21850000  0.96550000  0.85290000  1
  H  H216  1  0.90000000  0.96670000  0.02970000  1
  H  H217  1  0.90000000  0.96670000  0.47030000  1
  H  H218  1  0.35740000  0.97050000  0.15230000  1
  H  H219  1  0.35740000  0.97050000  0.34770000  1
  H  H220  1  0.25280000  0.97390000  0.01610000  1
  H  H221  1  0.25280000  0.97390000  0.48390000  1
  H  H222  1  0.31830000  0.99770000  0.59110000  1
  H  H223  1  0.31830000  0.99770000  0.90890000  1
  C  C224  1  0.17900000  0.00440000  0.60310000  1
  C  C225  1  0.17900000  0.00440000  0.89690000  1
  C  C226  1  0.07300000  0.00520000  0.15670000  1
  C  C227  1  0.07300000  0.00520000  0.34330000  1
  C  C228  1  0.88000000  0.01450000  0.13730000  1
  C  C229  1  0.88000000  0.01450000  0.36270000  1
  C  C230  1  0.78200000  0.02300000  0.64030000  1
  C  C231  1  0.78200000  0.02300000  0.85970000  1
  C  C232  1  0.11400000  0.02740000  0.19500000  1
  C  C233  1  0.11400000  0.02740000  0.30500000  1
  C  C234  1  0.03300000  0.03350000  0.58630000  1
  C  C235  1  0.03300000  0.03350000  0.91370000  1
  C  C236  1  0.84000000  0.04220000  0.60590000  1
  C  C237  1  0.84000000  0.04220000  0.89410000  1
  C  C238  1  0.71800000  0.04670000  0.00280000  1
  C  C239  1  0.71800000  0.04670000  0.49720000  1
  C  C240  1  0.10800000  0.05330000  0.55020000  1
  C  C241  1  0.10800000  0.05330000  0.94980000  1
  C  C242  1  0.78400000  0.08800000  0.51300000  1
  C  C243  1  0.78400000  0.08800000  0.98700000  1
  C  C244  1  0.96500000  0.09110000  0.53810000  1
  C  C245  1  0.96500000  0.09110000  0.96190000  1
  C  C246  1  0.37100000  0.10030000  0.09360000  1
  C  C247  1  0.37100000  0.10030000  0.40640000  1
  C  C248  1  0.41500000  0.10170000  0.13240000  1
  C  C249  1  0.41500000  0.10170000  0.36760000  1
  C  C250  1  0.52400000  0.11840000  0.06800000  1
  C  C251  1  0.52400000  0.11840000  0.43200000  1
  C  C252  1  0.61500000  0.11930000  0.14660000  1
  C  C253  1  0.61500000  0.11930000  0.35340000  1
  C  C254  1  0.66600000  0.11960000  0.18850000  1
  C  C255  1  0.66600000  0.11960000  0.31150000  1
  C  C256  1  0.46500000  0.12000000  0.02510000  1
  C  C257  1  0.46500000  0.12000000  0.47490000  1
  C  C258  1  0.66500000  0.12380000  0.50120000  1
  C  C259  1  0.66500000  0.12380000  0.99880000  1
  C  C260  1  0.04000000  0.12800000  0.55320000  1
  C  C261  1  0.04000000  0.12800000  0.94680000  1
  C  C262  1  0.22900000  0.13010000  0.58230000  1
  C  C263  1  0.22900000  0.13010000  0.91770000  1
  C  C264  1  0.72200000  0.13500000  0.08220000  1
  C  C265  1  0.72200000  0.13500000  0.41780000  1
  C  C266  1  0.76900000  0.13660000  0.12120000  1
  C  C267  1  0.76900000  0.13660000  0.37880000  1
  C  C268  1  0.75000000  0.16200000  0.51510000  1
  C  C269  1  0.75000000  0.16200000  0.98490000  1
  C  C270  1  0.93000000  0.16350000  0.54030000  1
  C  C271  1  0.93000000  0.16350000  0.95970000  1
  C  C272  1  0.63000000  0.20110000  0.50130000  1
  C  C273  1  0.63000000  0.20110000  0.99870000  1
  C  C274  1  0.02500000  0.20510000  0.55310000  1
  C  C275  1  0.02500000  0.20510000  0.94690000  1
  C  C276  1  0.72100000  0.20950000  0.60430000  1
  C  C277  1  0.72100000  0.20950000  0.89570000  1
  C  C278  1  0.13200000  0.22210000  0.18910000  1
  C  C279  1  0.13200000  0.22210000  0.31090000  1
  C  C280  1  0.91800000  0.22270000  0.58840000  1
  C  C281  1  0.91800000  0.22270000  0.91160000  1
  C  C282  1  0.62200000  0.22720000  0.63630000  1
  C  C283  1  0.62200000  0.22720000  0.86370000  1
  C  C284  1  0.44100000  0.22740000  0.13950000  1
  C  C285  1  0.44100000  0.22740000  0.36050000  1
  C  C286  1  0.23200000  0.24110000  0.15380000  1
  C  C287  1  0.23200000  0.24110000  0.34620000  1
  C  C288  1  0.53300000  0.24490000  0.10650000  1
  C  C289  1  0.53300000  0.24490000  0.39350000  1
  C  C290  1  0.03300000  0.25510000  0.60650000  1
  C  C291  1  0.03300000  0.25510000  0.89350000  1
  C  C292  1  0.73200000  0.25890000  0.65380000  1
  C  C293  1  0.73200000  0.25890000  0.84620000  1
  C  C294  1  0.94100000  0.27260000  0.63950000  1
  C  C295  1  0.94100000  0.27260000  0.86050000  1
  C  C296  1  0.12200000  0.27280000  0.13630000  1
  C  C297  1  0.12200000  0.27280000  0.36370000  1
  C  C298  1  0.41800000  0.27730000  0.08840000  1
  C  C299  1  0.41800000  0.27730000  0.41160000  1
  C  C300  1  0.63200000  0.27790000  0.68910000  1
  C  C301  1  0.63200000  0.27790000  0.81090000  1
  C  C302  1  0.22100000  0.29050000  0.10430000  1
  C  C303  1  0.22100000  0.29050000  0.39570000  1
  C  C304  1  0.52500000  0.29490000  0.05310000  1
  C  C305  1  0.52500000  0.29490000  0.44690000  1
  C  C306  1  0.13000000  0.29890000  0.00130000  1
  C  C307  1  0.13000000  0.29890000  0.49870000  1
  C  C308  1  0.43000000  0.33650000  0.04030000  1
  C  C309  1  0.43000000  0.33650000  0.45970000  1
  C  C310  1  0.25000000  0.33800000  0.01510000  1
  C  C311  1  0.25000000  0.33800000  0.48490000  1
  C  C312  1  0.26900000  0.36340000  0.62120000  1
  C  C313  1  0.26900000  0.36340000  0.87880000  1
  C  C314  1  0.22200000  0.36500000  0.58220000  1
  C  C315  1  0.22200000  0.36500000  0.91780000  1
  C  C316  1  0.72900000  0.36990000  0.08230000  1
  C  C317  1  0.72900000  0.36990000  0.41770000  1
  C  C318  1  0.54000000  0.37200000  0.05320000  1
  C  C319  1  0.54000000  0.37200000  0.44680000  1
  C  C320  1  0.16500000  0.37620000  0.00120000  1
  C  C321  1  0.16500000  0.37620000  0.49880000  1
  C  C322  1  0.96500000  0.38000000  0.52510000  1
  C  C323  1  0.96500000  0.38000000  0.97490000  1
  C  C324  1  0.16600000  0.38040000  0.68850000  1
  C  C325  1  0.16600000  0.38040000  0.81150000  1
  C  C326  1  0.11500000  0.38070000  0.64660000  1
  C  C327  1  0.11500000  0.38070000  0.85340000  1
  C  C328  1  0.02400000  0.38160000  0.56800000  1
  C  C329  1  0.02400000  0.38160000  0.93200000  1
  C  C330  1  0.91500000  0.39830000  0.63240000  1
  C  C331  1  0.91500000  0.39830000  0.86760000  1
  C  C332  1  0.87100000  0.39970000  0.59360000  1
  C  C333  1  0.87100000  0.39970000  0.90640000  1
  C  C334  1  0.46500000  0.40890000  0.03810000  1
  C  C335  1  0.46500000  0.40890000  0.46190000  1
  C  C336  1  0.28400000  0.41200000  0.01300000  1
  C  C337  1  0.28400000  0.41200000  0.48700000  1
  C  C338  1  0.60800000  0.44670000  0.05020000  1
  C  C339  1  0.60800000  0.44670000  0.44980000  1
  C  C340  1  0.21800000  0.45330000  0.50280000  1
  C  C341  1  0.21800000  0.45330000  0.99720000  1
  C  C342  1  0.34000000  0.45780000  0.10590000  1
  C  C343  1  0.34000000  0.45780000  0.39410000  1
  C  C344  1  0.53300000  0.46650000  0.08630000  1
  C  C345  1  0.53300000  0.46650000  0.41370000  1
  C  C346  1  0.61400000  0.47260000  0.69500000  1
  C  C347  1  0.61400000  0.47260000  0.80500000  1
  C  C348  1  0.28200000  0.47700000  0.14030000  1
  C  C349  1  0.28200000  0.47700000  0.35970000  1
  C  C350  1  0.38000000  0.48550000  0.63730000  1
  C  C351  1  0.38000000  0.48550000  0.86270000  1
  C  C352  1  0.57300000  0.49480000  0.65670000  1
  C  C353  1  0.57300000  0.49480000  0.84330000  1
  C  C354  1  0.67900000  0.49560000  0.10310000  1
  C  C355  1  0.67900000  0.49560000  0.39690000  1
  C  C356  1  0.32100000  0.50440000  0.60310000  1
  C  C357  1  0.32100000  0.50440000  0.89690000  1
  C  C358  1  0.42700000  0.50520000  0.15670000  1
  C  C359  1  0.42700000  0.50520000  0.34330000  1
  C  C360  1  0.62000000  0.51450000  0.13730000  1
  C  C361  1  0.62000000  0.51450000  0.36270000  1
  C  C362  1  0.71800000  0.52300000  0.64030000  1
  C  C363  1  0.71800000  0.52300000  0.85970000  1
  C  C364  1  0.38600000  0.52740000  0.19500000  1
  C  C365  1  0.38600000  0.52740000  0.30500000  1
  C  C366  1  0.46700000  0.53350000  0.58630000  1
  C  C367  1  0.46700000  0.53350000  0.91370000  1
  C  C368  1  0.66000000  0.54220000  0.60590000  1
  C  C369  1  0.66000000  0.54220000  0.89410000  1
  C  C370  1  0.78200000  0.54670000  0.00280000  1
  C  C371  1  0.78200000  0.54670000  0.49720000  1
  C  C372  1  0.39200000  0.55330000  0.55020000  1
  C  C373  1  0.39200000  0.55330000  0.94980000  1
  C  C374  1  0.71600000  0.58800000  0.51300000  1
  C  C375  1  0.71600000  0.58800000  0.98700000  1
  C  C376  1  0.53500000  0.59110000  0.53810000  1
  C  C377  1  0.53500000  0.59110000  0.96190000  1
  C  C378  1  0.12900000  0.60030000  0.09360000  1
  C  C379  1  0.12900000  0.60030000  0.40640000  1
  C  C380  1  0.08500000  0.60170000  0.13240000  1
  C  C381  1  0.08500000  0.60170000  0.36760000  1
  C  C382  1  0.97600000  0.61840000  0.06800000  1
  C  C383  1  0.97600000  0.61840000  0.43200000  1
  C  C384  1  0.88500000  0.61930000  0.14660000  1
  C  C385  1  0.88500000  0.61930000  0.35340000  1
  C  C386  1  0.83400000  0.61960000  0.18850000  1
  C  C387  1  0.83400000  0.61960000  0.31150000  1
  C  C388  1  0.03500000  0.62000000  0.02510000  1
  C  C389  1  0.03500000  0.62000000  0.47490000  1
  C  C390  1  0.83500000  0.62380000  0.50120000  1
  C  C391  1  0.83500000  0.62380000  0.99880000  1
  C  C392  1  0.46000000  0.62800000  0.55320000  1
  C  C393  1  0.46000000  0.62800000  0.94680000  1
  C  C394  1  0.27100000  0.63010000  0.58230000  1
  C  C395  1  0.27100000  0.63010000  0.91770000  1
  C  C396  1  0.77800000  0.63500000  0.08220000  1
  C  C397  1  0.77800000  0.63500000  0.41780000  1
  C  C398  1  0.73100000  0.63660000  0.12120000  1
  C  C399  1  0.73100000  0.63660000  0.37880000  1
  C  C400  1  0.75000000  0.66200000  0.51510000  1
  C  C401  1  0.75000000  0.66200000  0.98490000  1
  C  C402  1  0.57000000  0.66350000  0.54030000  1
  C  C403  1  0.57000000  0.66350000  0.95970000  1
  C  C404  1  0.87000000  0.70110000  0.50130000  1
  C  C405  1  0.87000000  0.70110000  0.99870000  1
  C  C406  1  0.47500000  0.70510000  0.55310000  1
  C  C407  1  0.47500000  0.70510000  0.94690000  1
  C  C408  1  0.77900000  0.70950000  0.60430000  1
  C  C409  1  0.77900000  0.70950000  0.89570000  1
  C  C410  1  0.36800000  0.72210000  0.18910000  1
  C  C411  1  0.36800000  0.72210000  0.31090000  1
  C  C412  1  0.58200000  0.72270000  0.58840000  1
  C  C413  1  0.58200000  0.72270000  0.91160000  1
  C  C414  1  0.87800000  0.72720000  0.63630000  1
  C  C415  1  0.87800000  0.72720000  0.86370000  1
  C  C416  1  0.05900000  0.72740000  0.13950000  1
  C  C417  1  0.05900000  0.72740000  0.36050000  1
  C  C418  1  0.26800000  0.74110000  0.15380000  1
  C  C419  1  0.26800000  0.74110000  0.34620000  1
  C  C420  1  0.96700000  0.74490000  0.10650000  1
  C  C421  1  0.96700000  0.74490000  0.39350000  1
  C  C422  1  0.46700000  0.75510000  0.60650000  1
  C  C423  1  0.46700000  0.75510000  0.89350000  1
  C  C424  1  0.76800000  0.75890000  0.65380000  1
  C  C425  1  0.76800000  0.75890000  0.84620000  1
  C  C426  1  0.55900000  0.77260000  0.63950000  1
  C  C427  1  0.55900000  0.77260000  0.86050000  1
  C  C428  1  0.37800000  0.77280000  0.13630000  1
  C  C429  1  0.37800000  0.77280000  0.36370000  1
  C  C430  1  0.08200000  0.77730000  0.08840000  1
  C  C431  1  0.08200000  0.77730000  0.41160000  1
  C  C432  1  0.86800000  0.77790000  0.68910000  1
  C  C433  1  0.86800000  0.77790000  0.81090000  1
  C  C434  1  0.27900000  0.79050000  0.10430000  1
  C  C435  1  0.27900000  0.79050000  0.39570000  1
  C  C436  1  0.97500000  0.79490000  0.05310000  1
  C  C437  1  0.97500000  0.79490000  0.44690000  1
  C  C438  1  0.37000000  0.79890000  0.00130000  1
  C  C439  1  0.37000000  0.79890000  0.49870000  1
  C  C440  1  0.07000000  0.83650000  0.04030000  1
  C  C441  1  0.07000000  0.83650000  0.45970000  1
  C  C442  1  0.25000000  0.83800000  0.01510000  1
  C  C443  1  0.25000000  0.83800000  0.48490000  1
  C  C444  1  0.23100000  0.86340000  0.62120000  1
  C  C445  1  0.23100000  0.86340000  0.87880000  1
  C  C446  1  0.27800000  0.86500000  0.58220000  1
  C  C447  1  0.27800000  0.86500000  0.91780000  1
  C  C448  1  0.77100000  0.86990000  0.08230000  1
  C  C449  1  0.77100000  0.86990000  0.41770000  1
  C  C450  1  0.96000000  0.87200000  0.05320000  1
  C  C451  1  0.96000000  0.87200000  0.44680000  1
  C  C452  1  0.33500000  0.87620000  0.00120000  1
  C  C453  1  0.33500000  0.87620000  0.49880000  1
  C  C454  1  0.53500000  0.88000000  0.52510000  1
  C  C455  1  0.53500000  0.88000000  0.97490000  1
  C  C456  1  0.33400000  0.88040000  0.68850000  1
  C  C457  1  0.33400000  0.88040000  0.81150000  1
  C  C458  1  0.38500000  0.88070000  0.64660000  1
  C  C459  1  0.38500000  0.88070000  0.85340000  1
  C  C460  1  0.47600000  0.88160000  0.56800000  1
  C  C461  1  0.47600000  0.88160000  0.93200000  1
  C  C462  1  0.58500000  0.89830000  0.63240000  1
  C  C463  1  0.58500000  0.89830000  0.86760000  1
  C  C464  1  0.62900000  0.89970000  0.59360000  1
  C  C465  1  0.62900000  0.89970000  0.90640000  1
  C  C466  1  0.03500000  0.90890000  0.03810000  1
  C  C467  1  0.03500000  0.90890000  0.46190000  1
  C  C468  1  0.21600000  0.91200000  0.01300000  1
  C  C469  1  0.21600000  0.91200000  0.48700000  1
  C  C470  1  0.89200000  0.94670000  0.05020000  1
  C  C471  1  0.89200000  0.94670000  0.44980000  1
  C  C472  1  0.28200000  0.95330000  0.50280000  1
  C  C473  1  0.28200000  0.95330000  0.99720000  1
  C  C474  1  0.16000000  0.95780000  0.10590000  1
  C  C475  1  0.16000000  0.95780000  0.39410000  1
  C  C476  1  0.96700000  0.96650000  0.08630000  1
  C  C477  1  0.96700000  0.96650000  0.41370000  1
  C  C478  1  0.88600000  0.97260000  0.69500000  1
  C  C479  1  0.88600000  0.97260000  0.80500000  1
  C  C480  1  0.21800000  0.97700000  0.14030000  1
  C  C481  1  0.21800000  0.97700000  0.35970000  1
  C  C482  1  0.12000000  0.98550000  0.63730000  1
  C  C483  1  0.12000000  0.98550000  0.86270000  1
  C  C484  1  0.92700000  0.99480000  0.65670000  1
  C  C485  1  0.92700000  0.99480000  0.84330000  1
  C  C486  1  0.82100000  0.99560000  0.10310000  1
  C  C487  1  0.82100000  0.99560000  0.39690000  1
  O  O488  1  0.33400000  0.01810000  0.20670000  1
  O  O489  1  0.33400000  0.01810000  0.29330000  1
  O  O490  1  0.95100000  0.04500000  0.20870000  1
  O  O491  1  0.95100000  0.04500000  0.29130000  1
  O  O492  1  0.56700000  0.09450000  0.20960000  1
  O  O493  1  0.56700000  0.09450000  0.29040000  1
  O  O494  1  0.78900000  0.14790000  0.20040000  1
  O  O495  1  0.78900000  0.14790000  0.29960000  1
  O  O496  1  0.23760000  0.19200000  0.20420000  1
  O  O497  1  0.23760000  0.19200000  0.29580000  1
  O  O498  1  0.95600000  0.23530000  0.20470000  1
  O  O499  1  0.95600000  0.23530000  0.29530000  1
  O  O500  1  0.45600000  0.26470000  0.70470000  1
  O  O501  1  0.45600000  0.26470000  0.79530000  1
  O  O502  1  0.73760000  0.30800000  0.70420000  1
  O  O503  1  0.73760000  0.30800000  0.79580000  1
  O  O504  1  0.28900000  0.35210000  0.70040000  1
  O  O505  1  0.28900000  0.35210000  0.79960000  1
  O  O506  1  0.06700000  0.40550000  0.70960000  1
  O  O507  1  0.06700000  0.40550000  0.79040000  1
  O  O508  1  0.45100000  0.45500000  0.70870000  1
  O  O509  1  0.45100000  0.45500000  0.79130000  1
  O  O510  1  0.83400000  0.48190000  0.70670000  1
  O  O511  1  0.83400000  0.48190000  0.79330000  1
  O  O512  1  0.16600000  0.51810000  0.20670000  1
  O  O513  1  0.16600000  0.51810000  0.29330000  1
  O  O514  1  0.54900000  0.54500000  0.20870000  1
  O  O515  1  0.54900000  0.54500000  0.29130000  1
  O  O516  1  0.93300000  0.59450000  0.20960000  1
  O  O517  1  0.93300000  0.59450000  0.29040000  1
  O  O518  1  0.71100000  0.64790000  0.20040000  1
  O  O519  1  0.71100000  0.64790000  0.29960000  1
  O  O520  1  0.26240000  0.69200000  0.20420000  1
  O  O521  1  0.26240000  0.69200000  0.29580000  1
  O  O522  1  0.54400000  0.73530000  0.20470000  1
  O  O523  1  0.54400000  0.73530000  0.29530000  1
  O  O524  1  0.04400000  0.76470000  0.70470000  1
  O  O525  1  0.04400000  0.76470000  0.79530000  1
  O  O526  1  0.76240000  0.80800000  0.70420000  1
  O  O527  1  0.76240000  0.80800000  0.79580000  1
  O  O528  1  0.21100000  0.85210000  0.70040000  1
  O  O529  1  0.21100000  0.85210000  0.79960000  1
  O  O530  1  0.43300000  0.90550000  0.70960000  1
  O  O531  1  0.43300000  0.90550000  0.79040000  1
  O  O532  1  0.04900000  0.95500000  0.70870000  1
  O  O533  1  0.04900000  0.95500000  0.79130000  1
  O  O534  1  0.66600000  0.98190000  0.70670000  1
  O  O535  1  0.66600000  0.98190000  0.79330000  1
