# generated using pymatgen
data_ZnH4(C5O2)2
_symmetry_space_group_name_H-M   'P 1'
_cell_length_a   18.59000000
_cell_length_b   18.59000000
_cell_length_c   18.59000000
_cell_angle_alpha   74.87650000
_cell_angle_beta   74.87650000
_cell_angle_gamma   74.87650000
_symmetry_Int_Tables_number   1
_chemical_formula_structural   ZnH4(C5O2)2
_chemical_formula_sum   'Zn12 H48 C120 O48'
_cell_volume   5857.60412177
_cell_formula_units_Z   12
loop_
 _symmetry_equiv_pos_site_id
 _symmetry_equiv_pos_as_xyz
  1  'x, y, z'
loop_
 _atom_site_type_symbol
 _atom_site_label
 _atom_site_symmetry_multiplicity
 _atom_site_fract_x
 _atom_site_fract_y
 _atom_site_fract_z
 _atom_site_occupancy
  Zn  Zn0  1  0.41943000  0.99758000  0.20158000  1
  Zn  Zn1  1  0.49758000  0.91943000  0.70158000  1
  Zn  Zn2  1  0.59030000  0.90111000  0.23227000  1
  Zn  Zn3  1  0.09030000  0.73227000  0.40111000  1
  Zn  Zn4  1  0.91943000  0.70158000  0.49758000  1
  Zn  Zn5  1  0.23227000  0.59030000  0.90111000  1
  Zn  Zn6  1  0.70158000  0.49758000  0.91943000  1
  Zn  Zn7  1  0.20158000  0.41943000  0.99758000  1
  Zn  Zn8  1  0.73227000  0.40111000  0.09030000  1
  Zn  Zn9  1  0.90111000  0.23227000  0.59030000  1
  Zn  Zn10  1  0.99758000  0.20158000  0.41943000  1
  Zn  Zn11  1  0.40111000  0.09030000  0.73227000  1
  H  H12  1  0.87000000  0.99700000  0.68430000  1
  H  H13  1  0.50140000  0.97800000  0.47140000  1
  H  H14  1  0.82290000  0.97170000  0.12410000  1
  H  H15  1  0.00140000  0.97140000  0.47800000  1
  H  H16  1  0.76230000  0.93840000  0.75550000  1
  H  H17  1  0.63140000  0.93350000  0.78930000  1
  H  H18  1  0.06830000  0.88780000  0.06640000  1
  H  H19  1  0.68430000  0.87000000  0.99700000  1
  H  H20  1  0.01910000  0.86640000  0.19730000  1
  H  H21  1  0.12410000  0.82290000  0.97170000  1
  H  H22  1  0.31380000  0.81820000  0.80650000  1
  H  H23  1  0.31820000  0.81380000  0.30650000  1
  H  H24  1  0.81820000  0.80650000  0.31380000  1
  H  H25  1  0.93350000  0.78930000  0.63140000  1
  H  H26  1  0.75550000  0.76230000  0.93840000  1
  H  H27  1  0.93840000  0.75550000  0.76230000  1
  H  H28  1  0.51910000  0.69730000  0.36640000  1
  H  H29  1  0.99700000  0.68430000  0.87000000  1
  H  H30  1  0.78930000  0.63140000  0.93350000  1
  H  H31  1  0.32290000  0.62410000  0.47170000  1
  H  H32  1  0.38780000  0.56830000  0.56640000  1
  H  H33  1  0.56830000  0.56640000  0.38780000  1
  H  H34  1  0.36640000  0.51910000  0.69730000  1
  H  H35  1  0.47140000  0.50140000  0.97800000  1
  H  H36  1  0.18430000  0.49700000  0.37000000  1
  H  H37  1  0.97140000  0.47800000  0.00140000  1
  H  H38  1  0.62410000  0.47170000  0.32290000  1
  H  H39  1  0.97800000  0.47140000  0.50140000  1
  H  H40  1  0.25550000  0.43840000  0.26230000  1
  H  H41  1  0.28930000  0.43350000  0.13140000  1
  H  H42  1  0.56640000  0.38780000  0.56830000  1
  H  H43  1  0.49700000  0.37000000  0.18430000  1
  H  H44  1  0.69730000  0.36640000  0.51910000  1
  H  H45  1  0.47170000  0.32290000  0.62410000  1
  H  H46  1  0.30650000  0.31820000  0.81380000  1
  H  H47  1  0.80650000  0.31380000  0.81820000  1
  H  H48  1  0.81380000  0.30650000  0.31820000  1
  H  H49  1  0.13140000  0.28930000  0.43350000  1
  H  H50  1  0.43840000  0.26230000  0.25550000  1
  H  H51  1  0.26230000  0.25550000  0.43840000  1
  H  H52  1  0.86640000  0.19730000  0.01910000  1
  H  H53  1  0.37000000  0.18430000  0.49700000  1
  H  H54  1  0.43350000  0.13140000  0.28930000  1
  H  H55  1  0.97170000  0.12410000  0.82290000  1
  H  H56  1  0.06640000  0.06830000  0.88780000  1
  H  H57  1  0.88780000  0.06640000  0.06830000  1
  H  H58  1  0.19730000  0.01910000  0.86640000  1
  H  H59  1  0.47800000  0.00140000  0.97140000  1
  C  C60  1  0.93678000  0.99600000  0.57835000  1
  C  C61  1  0.51554000  0.98821000  0.32378000  1
  C  C62  1  0.52652000  0.97452000  0.95003000  1
  C  C63  1  0.54516000  0.97350000  0.87199000  1
  C  C64  1  0.07762000  0.97013000  0.96890000  1
  C  C65  1  0.97013000  0.96890000  0.07762000  1
  C  C66  1  0.20302000  0.96558000  0.87316000  1
  C  C67  1  0.89711000  0.96497000  0.64941000  1
  C  C68  1  0.32608000  0.96447000  0.77899000  1
  C  C69  1  0.97452000  0.95003000  0.52652000  1
  C  C70  1  0.55745000  0.94084000  0.08034000  1
  C  C71  1  0.57835000  0.93678000  0.99600000  1
  C  C72  1  0.04256000  0.93506000  0.04146000  1
  C  C73  1  0.84991000  0.93431000  0.15881000  1
  C  C74  1  0.61777000  0.93427000  0.84206000  1
  C  C75  1  0.14704000  0.92826000  0.92638000  1
  C  C76  1  0.92826000  0.92638000  0.14704000  1
  C  C77  1  0.26474000  0.92539000  0.83186000  1
  C  C78  1  0.72519000  0.89969000  0.22479000  1
  C  C79  1  0.64941000  0.89711000  0.96497000  1
  C  C80  1  0.66974000  0.89694000  0.88736000  1
  C  C81  1  0.78522000  0.88998000  0.78139000  1
  C  C82  1  0.80999000  0.88956000  0.21942000  1
  C  C83  1  0.89694000  0.88736000  0.66974000  1
  C  C84  1  0.96558000  0.87316000  0.20302000  1
  C  C85  1  0.97350000  0.87199000  0.54516000  1
  C  C86  1  0.74742000  0.85717000  0.85233000  1
  C  C87  1  0.85717000  0.85233000  0.74742000  1
  C  C88  1  0.15881000  0.84991000  0.93431000  1
  C  C89  1  0.27265000  0.84563000  0.83777000  1
  C  C90  1  0.93427000  0.84206000  0.61777000  1
  C  C91  1  0.84563000  0.83777000  0.27265000  1
  C  C92  1  0.92539000  0.83186000  0.26474000  1
  C  C93  1  0.46447000  0.82608000  0.27899000  1
  C  C94  1  0.01554000  0.82378000  0.48821000  1
  C  C95  1  0.21942000  0.80999000  0.88956000  1
  C  C96  1  0.78139000  0.78522000  0.88998000  1
  C  C97  1  0.88998000  0.78139000  0.78522000  1
  C  C98  1  0.96447000  0.77899000  0.32608000  1
  C  C99  1  0.34563000  0.77265000  0.33777000  1
  C  C100  1  0.42539000  0.76474000  0.33186000  1
  C  C101  1  0.85233000  0.74742000  0.85717000  1
  C  C102  1  0.22479000  0.72519000  0.89969000  1
  C  C103  1  0.22519000  0.72479000  0.39969000  1
  C  C104  1  0.30999000  0.71942000  0.38956000  1
  C  C105  1  0.46558000  0.70302000  0.37316000  1
  C  C106  1  0.88736000  0.66974000  0.89694000  1
  C  C107  1  0.34991000  0.65881000  0.43431000  1
  C  C108  1  0.96497000  0.64941000  0.89711000  1
  C  C109  1  0.42826000  0.64704000  0.42638000  1
  C  C110  1  0.84206000  0.61777000  0.93427000  1
  C  C111  1  0.05745000  0.58034000  0.44084000  1
  C  C112  1  0.99600000  0.57835000  0.93678000  1
  C  C113  1  0.47013000  0.57762000  0.46890000  1
  C  C114  1  0.08034000  0.55745000  0.94084000  1
  C  C115  1  0.87199000  0.54516000  0.97350000  1
  C  C116  1  0.43506000  0.54256000  0.54146000  1
  C  C117  1  0.54256000  0.54146000  0.43506000  1
  C  C118  1  0.95003000  0.52652000  0.97452000  1
  C  C119  1  0.32378000  0.51554000  0.98821000  1
  C  C120  1  0.07835000  0.49600000  0.43678000  1
  C  C121  1  0.82378000  0.48821000  0.01554000  1
  C  C122  1  0.45003000  0.47452000  0.02652000  1
  C  C123  1  0.37199000  0.47350000  0.04516000  1
  C  C124  1  0.46890000  0.47013000  0.57762000  1
  C  C125  1  0.57762000  0.46890000  0.47013000  1
  C  C126  1  0.37316000  0.46558000  0.70302000  1
  C  C127  1  0.14941000  0.46497000  0.39711000  1
  C  C128  1  0.27899000  0.46447000  0.82608000  1
  C  C129  1  0.02652000  0.45003000  0.47452000  1
  C  C130  1  0.58034000  0.44084000  0.05745000  1
  C  C131  1  0.49600000  0.43678000  0.07835000  1
  C  C132  1  0.54146000  0.43506000  0.54256000  1
  C  C133  1  0.65881000  0.43431000  0.34991000  1
  C  C134  1  0.34206000  0.43427000  0.11777000  1
  C  C135  1  0.42638000  0.42826000  0.64704000  1
  C  C136  1  0.64704000  0.42638000  0.42826000  1
  C  C137  1  0.33186000  0.42539000  0.76474000  1
  C  C138  1  0.72479000  0.39969000  0.22519000  1
  C  C139  1  0.46497000  0.39711000  0.14941000  1
  C  C140  1  0.38736000  0.39694000  0.16974000  1
  C  C141  1  0.28139000  0.38998000  0.28522000  1
  C  C142  1  0.71942000  0.38956000  0.30999000  1
  C  C143  1  0.16974000  0.38736000  0.39694000  1
  C  C144  1  0.70302000  0.37316000  0.46558000  1
  C  C145  1  0.04516000  0.37199000  0.47350000  1
  C  C146  1  0.35233000  0.35717000  0.24742000  1
  C  C147  1  0.24742000  0.35233000  0.35717000  1
  C  C148  1  0.43431000  0.34991000  0.65881000  1
  C  C149  1  0.33777000  0.34563000  0.77265000  1
  C  C150  1  0.11777000  0.34206000  0.43427000  1
  C  C151  1  0.77265000  0.33777000  0.34563000  1
  C  C152  1  0.76474000  0.33186000  0.42539000  1
  C  C153  1  0.77899000  0.32608000  0.96447000  1
  C  C154  1  0.98821000  0.32378000  0.51554000  1
  C  C155  1  0.38956000  0.30999000  0.71942000  1
  C  C156  1  0.38998000  0.28522000  0.28139000  1
  C  C157  1  0.28522000  0.28139000  0.38998000  1
  C  C158  1  0.82608000  0.27899000  0.46447000  1
  C  C159  1  0.83777000  0.27265000  0.84563000  1
  C  C160  1  0.83186000  0.26474000  0.92539000  1
  C  C161  1  0.35717000  0.24742000  0.35233000  1
  C  C162  1  0.39969000  0.22519000  0.72479000  1
  C  C163  1  0.89969000  0.22479000  0.72519000  1
  C  C164  1  0.88956000  0.21942000  0.80999000  1
  C  C165  1  0.87316000  0.20302000  0.96558000  1
  C  C166  1  0.39694000  0.16974000  0.38736000  1
  C  C167  1  0.93431000  0.15881000  0.84991000  1
  C  C168  1  0.39711000  0.14941000  0.46497000  1
  C  C169  1  0.92638000  0.14704000  0.92826000  1
  C  C170  1  0.43427000  0.11777000  0.34206000  1
  C  C171  1  0.94084000  0.08034000  0.55745000  1
  C  C172  1  0.43678000  0.07835000  0.49600000  1
  C  C173  1  0.96890000  0.07762000  0.97013000  1
  C  C174  1  0.44084000  0.05745000  0.58034000  1
  C  C175  1  0.47350000  0.04516000  0.37199000  1
  C  C176  1  0.04146000  0.04256000  0.93506000  1
  C  C177  1  0.93506000  0.04146000  0.04256000  1
  C  C178  1  0.47452000  0.02652000  0.45003000  1
  C  C179  1  0.48821000  0.01554000  0.82378000  1
  O  O180  1  0.50838000  0.99982000  0.25510000  1
  O  O181  1  0.48590000  0.99691000  0.60107000  1
  O  O182  1  0.49691000  0.98590000  0.10107000  1
  O  O183  1  0.68839000  0.96261000  0.19783000  1
  O  O184  1  0.55861000  0.92926000  0.35130000  1
  O  O185  1  0.38036000  0.92579000  0.74047000  1
  O  O186  1  0.60364000  0.90087000  0.12092000  1
  O  O187  1  0.42579000  0.88036000  0.24047000  1
  O  O188  1  0.05861000  0.85130000  0.42926000  1
  O  O189  1  0.69508000  0.84209000  0.25547000  1
  O  O190  1  0.53387000  0.81738000  0.27895000  1
  O  O191  1  0.03387000  0.77895000  0.31738000  1
  O  O192  1  0.19508000  0.75547000  0.34209000  1
  O  O193  1  0.00838000  0.75510000  0.49982000  1
  O  O194  1  0.92579000  0.74047000  0.38036000  1
  O  O195  1  0.18839000  0.69783000  0.46261000  1
  O  O196  1  0.25547000  0.69508000  0.84209000  1
  O  O197  1  0.19783000  0.68839000  0.96261000  1
  O  O198  1  0.10364000  0.62092000  0.40087000  1
  O  O199  1  0.12092000  0.60364000  0.90087000  1
  O  O200  1  0.99691000  0.60107000  0.48590000  1
  O  O201  1  0.35130000  0.55861000  0.92926000  1
  O  O202  1  0.27895000  0.53387000  0.81738000  1
  O  O203  1  0.25510000  0.50838000  0.99982000  1
  O  O204  1  0.75510000  0.49982000  0.00838000  1
  O  O205  1  0.10107000  0.49691000  0.98590000  1
  O  O206  1  0.60107000  0.48590000  0.99691000  1
  O  O207  1  0.69783000  0.46261000  0.18839000  1
  O  O208  1  0.85130000  0.42926000  0.05861000  1
  O  O209  1  0.24047000  0.42579000  0.88036000  1
  O  O210  1  0.62092000  0.40087000  0.10364000  1
  O  O211  1  0.74047000  0.38036000  0.92579000  1
  O  O212  1  0.92926000  0.35130000  0.55861000  1
  O  O213  1  0.75547000  0.34209000  0.19508000  1
  O  O214  1  0.77895000  0.31738000  0.03387000  1
  O  O215  1  0.81738000  0.27895000  0.53387000  1
  O  O216  1  0.84209000  0.25547000  0.69508000  1
  O  O217  1  0.99982000  0.25510000  0.50838000  1
  O  O218  1  0.88036000  0.24047000  0.42579000  1
  O  O219  1  0.96261000  0.19783000  0.68839000  1
  O  O220  1  0.34209000  0.19508000  0.75547000  1
  O  O221  1  0.46261000  0.18839000  0.69783000  1
  O  O222  1  0.90087000  0.12092000  0.60364000  1
  O  O223  1  0.40087000  0.10364000  0.62092000  1
  O  O224  1  0.98590000  0.10107000  0.49691000  1
  O  O225  1  0.42926000  0.05861000  0.85130000  1
  O  O226  1  0.31738000  0.03387000  0.77895000  1
  O  O227  1  0.49982000  0.00838000  0.75510000  1
