# generated using pymatgen
data_Mn3H57C51N8O9
_symmetry_space_group_name_H-M   'P 1'
_cell_length_a   17.43930000
_cell_length_b   30.17410000
_cell_length_c   30.17409363
_cell_angle_alpha   85.20974299
_cell_angle_beta   73.20324006
_cell_angle_gamma   73.20330000
_symmetry_Int_Tables_number   1
_chemical_formula_structural   Mn3H57C51N8O9
_chemical_formula_sum   'Mn24 H456 C408 N64 O72'
_cell_volume   14552.12382111
_cell_formula_units_Z   8
loop_
 _symmetry_equiv_pos_site_id
 _symmetry_equiv_pos_as_xyz
  1  'x, y, z'
loop_
 _atom_site_type_symbol
 _atom_site_label
 _atom_site_symmetry_multiplicity
 _atom_site_fract_x
 _atom_site_fract_y
 _atom_site_fract_z
 _atom_site_occupancy
  Mn  Mn0  1  0.36193000  0.64334000  0.58354000  1
  Mn  Mn1  1  0.70543000  0.49811000  0.07799000  1
  Mn  Mn2  1  0.39295000  0.46406000  0.38226000  1
  Mn  Mn3  1  0.22479000  0.88226000  0.53594000  1
  Mn  Mn4  1  0.21658000  0.57799000  0.50189000  1
  Mn  Mn5  1  0.70354000  0.07799000  0.00189000  1
  Mn  Mn6  1  0.28153000  0.00189000  0.42201000  1
  Mn  Mn7  1  0.76073000  0.96406000  0.88226000  1
  Mn  Mn8  1  0.49472000  0.41647000  0.14334000  1
  Mn  Mn9  1  0.64299000  0.61774000  0.96406000  1
  Mn  Mn10  1  0.94546000  0.91647000  0.64334000  1
  Mn  Mn11  1  0.58881000  0.85666000  0.91646000  1
  Mn  Mn12  1  0.41119000  0.14334000  0.08354000  1
  Mn  Mn13  1  0.05454000  0.08353000  0.35666000  1
  Mn  Mn14  1  0.35701000  0.38226000  0.03594000  1
  Mn  Mn15  1  0.50528000  0.58353000  0.85666000  1
  Mn  Mn16  1  0.23927000  0.03594000  0.11774000  1
  Mn  Mn17  1  0.71847000  0.99811000  0.57799000  1
  Mn  Mn18  1  0.29646000  0.92201000  0.99811000  1
  Mn  Mn19  1  0.78342000  0.42201000  0.49811000  1
  Mn  Mn20  1  0.77521000  0.11774000  0.46406000  1
  Mn  Mn21  1  0.60705000  0.53594000  0.61774000  1
  Mn  Mn22  1  0.29457000  0.50189000  0.92201000  1
  Mn  Mn23  1  0.63807000  0.35666000  0.41646000  1
  H  H24  1  0.93340000  0.14730000  0.05790000  1
  H  H25  1  0.19920000  0.93380000  0.79060000  1
  H  H26  1  0.96620000  0.36250000  0.02110000  1
  H  H27  1  0.37690000  0.53500000  0.61020000  1
  H  H28  1  0.86510000  0.88940000  0.12180000  1
  H  H29  1  0.19660000  0.68250000  0.78890000  1
  H  H30  1  0.77790000  0.12050000  0.20650000  1
  H  H31  1  0.32730000  0.90190000  0.64610000  1
  H  H32  1  0.82870000  0.02110000  0.13750000  1
  H  H33  1  0.38100000  0.49160000  0.58340000  1
  H  H34  1  0.30360000  0.48440000  0.65800000  1
  H  H35  1  0.94540000  0.08370000  0.01410000  1
  H  H36  1  0.36200000  0.81490000  0.59630000  1
  H  H37  1  0.04050000  0.51410000  0.91630000  1
  H  H38  1  0.11240000  0.63360000  0.84200000  1
  H  H39  1  0.42510000  0.43350000  0.52790000  1
  H  H40  1  0.52910000  0.01410000  0.41630000  1
  H  H41  1  0.86750000  0.23870000  0.07630000  1
  H  H42  1  0.26120000  0.56210000  0.68150000  1
  H  H43  1  0.42220000  0.98910000  0.51950000  1
  H  H44  1  0.78600000  0.43280000  0.15360000  1
  H  H45  1  0.81900000  0.94170000  0.11670000  1
  H  H46  1  0.58070000  0.05790000  0.35270000  1
  H  H47  1  0.09440000  0.88360000  0.83840000  1
  H  H48  1  0.66130000  0.56920000  0.27020000  1
  H  H49  1  0.94170000  0.98050000  0.98910000  1
  H  H50  1  0.49100000  0.16340000  0.43760000  1
  H  H51  1  0.98980000  0.70940000  0.93380000  1
  H  H52  1  0.39840000  0.35900000  0.52460000  1
  H  H53  1  0.18270000  0.51590000  0.73030000  1
  H  H54  1  0.93080000  0.51090000  0.98050000  1
  H  H55  1  0.71900000  0.57200000  0.19140000  1
  H  H56  1  0.76800000  0.90730000  0.14190000  1
  H  H57  1  0.07140000  0.93760000  0.83660000  1
  H  H58  1  0.52200000  0.16160000  0.38360000  1
  H  H59  1  0.79680000  0.27680000  0.10840000  1
  H  H60  1  0.30990000  0.75390000  0.59310000  1
  H  H61  1  0.47660000  0.57500000  0.42580000  1
  H  H62  1  0.31210000  0.38730000  0.58950000  1
  H  H63  1  0.13910000  0.58680000  0.76140000  1
  H  H64  1  0.18400000  0.69010000  0.71510000  1
  H  H65  1  0.01560000  0.70650000  0.87950000  1
  H  H66  1  0.17060000  0.91520000  0.72440000  1
  H  H67  1  0.83470000  0.86730000  0.05990000  1
  H  H68  1  0.75400000  0.15800000  0.13360000  1
  H  H69  1  0.47280000  0.33420000  0.41460000  1
  H  H70  1  0.86270000  0.42880000  0.01940000  1
  H  H71  1  0.85210000  0.29930000  0.02890000  1
  H  H72  1  0.93570000  0.38330000  0.94170000  1
  H  H73  1  0.68070000  0.36320000  0.19660000  1
  H  H74  1  0.98690000  0.37820000  0.88940000  1
  H  H75  1  0.97340000  0.85390000  0.90190000  1
  H  H76  1  0.82970000  0.91820000  0.04420000  1
  H  H77  1  0.57090000  0.52380000  0.30080000  1
  H  H78  1  0.24090000  0.49650000  0.62770000  1
  H  H79  1  0.60620000  0.07630000  0.26130000  1
  H  H80  1  0.25450000  0.12180000  0.61060000  1
  H  H81  1  0.37150000  0.45270000  0.49310000  1
  H  H82  1  0.79150000  0.01940000  0.07120000  1
  H  H83  1  0.00870000  0.55790000  0.85270000  1
  H  H84  1  0.77410000  0.23860000  0.08680000  1
  H  H85  1  0.28520000  0.43640000  0.56820000  1
  H  H86  1  0.65140000  0.02890000  0.20070000  1
  H  H87  1  0.19820000  0.57390000  0.65150000  1
  H  H88  1  0.90800000  0.66340000  0.93760000  1
  H  H89  1  0.46400000  0.63830000  0.37790000  1
  H  H90  1  0.20200000  0.05990000  0.63270000  1
  H  H91  1  0.33520000  0.38330000  0.49610000  1
  H  H92  1  0.57400000  0.40110000  0.25690000  1
  H  H93  1  0.24790000  0.04420000  0.58180000  1
  H  H94  1  0.41420000  0.27560000  0.41520000  1
  H  H95  1  0.34980000  0.13750000  0.47890000  1
  H  H96  1  0.38490000  0.60650000  0.44310000  1
  H  H97  1  0.18280000  0.40730000  0.64190000  1
  H  H98  1  0.47520000  0.59510000  0.34870000  1
  H  H99  1  0.11900000  0.52890000  0.70070000  1
  H  H100  1  0.26070000  0.11670000  0.55830000  1
  H  H101  1  0.09480000  0.60840000  0.72320000  1
  H  H102  1  0.05620000  0.57630000  0.76130000  1
  H  H103  1  0.80140000  0.26970000  0.01590000  1
  H  H104  1  0.90990000  0.35810000  0.90730000  1
  H  H105  1  0.93280000  0.66160000  0.88360000  1
  H  H106  1  0.62590000  0.28490000  0.19010000  1
  H  H107  1  0.89500000  0.77560000  0.91520000  1
  H  H108  1  0.62090000  0.21110000  0.18250000  1
  H  H109  1  0.72790000  0.34850000  0.07390000  1
  H  H110  1  0.57110000  0.01590000  0.23030000  1
  H  H111  1  0.36700000  0.20940000  0.43380000  1
  H  H112  1  0.71110000  0.88730000  0.08950000  1
  H  H113  1  0.23810000  0.36730000  0.55990000  1
  H  H114  1  0.57360000  0.10840000  0.22320000  1
  H  H115  1  0.87390000  0.45580000  0.91820000  1
  H  H116  1  0.31090000  0.07120000  0.48060000  1
  H  H117  1  0.48240000  0.92800000  0.30860000  1
  H  H118  1  0.53900000  0.48250000  0.25130000  1
  H  H119  1  0.71880000  0.15360000  0.06720000  1
  H  H120  1  0.16870000  0.99610000  0.61670000  1
  H  H121  1  0.78540000  0.88330000  0.99610000  1
  H  H122  1  0.71020000  0.93640000  0.06820000  1
  H  H123  1  0.11260000  0.91460000  0.66580000  1
  H  H124  1  0.39840000  0.20650000  0.37950000  1
  H  H125  1  0.51270000  0.08680000  0.26140000  1
  H  H126  1  0.95830000  0.90370000  0.81490000  1
  H  H127  1  0.16910000  0.75690000  0.59890000  1
  H  H128  1  0.17530000  0.14190000  0.59270000  1
  H  H129  1  0.63490000  0.99650000  0.12770000  1
  H  H130  1  0.89460000  0.44010000  0.86730000  1
  H  H131  1  0.43450000  0.80190000  0.32710000  1
  H  H132  1  0.12270000  0.69660000  0.63680000  1
  H  H133  1  0.76260000  0.37230000  0.99650000  1
  H  H134  1  0.41200000  0.13360000  0.34200000  1
  H  H135  1  0.20790000  0.41820000  0.54420000  1
  H  H136  1  0.53390000  0.66690000  0.21490000  1
  H  H137  1  0.12370000  0.38940000  0.62180000  1
  H  H138  1  0.71800000  0.85900000  0.02460000  1
  H  H139  1  0.12260000  0.44170000  0.61670000  1
  H  H140  1  0.67670000  0.31850000  0.06210000  1
  H  H141  1  0.56350000  0.69810000  0.17290000  1
  H  H142  1  0.50070000  0.93080000  0.22980000  1
  H  H143  1  0.87530000  0.59810000  0.85390000  1
  H  H144  1  0.57640000  0.07390000  0.15150000  1
  H  H145  1  0.20970000  0.75130000  0.51750000  1
  H  H146  1  0.39480000  0.69410000  0.32530000  1
  H  H147  1  0.79100000  0.19140000  0.92800000  1
  H  H148  1  0.37240000  0.06720000  0.34640000  1
  H  H149  1  0.07700000  0.02460000  0.64100000  1
  H  H150  1  0.77840000  0.43180000  0.93640000  1
  H  H151  1  0.55400000  0.98440000  0.15800000  1
  H  H152  1  0.09840000  0.08950000  0.61270000  1
  H  H153  1  0.14660000  0.06820000  0.56360000  1
  H  H154  1  0.31780000  0.65760000  0.38780000  1
  H  H155  1  0.41980000  0.78050000  0.28570000  1
  H  H156  1  0.40860000  0.65300000  0.29280000  1
  H  H157  1  0.41570000  0.83310000  0.28510000  1
  H  H158  1  0.48600000  0.71950000  0.21430000  1
  H  H159  1  0.71200000  0.34200000  0.98440000  1
  H  H160  1  0.31190000  0.85530000  0.38370000  1
  H  H161  1  0.77840000  0.83420000  0.91460000  1
  H  H162  1  0.43620000  0.40690000  0.25390000  1
  H  H163  1  0.11790000  0.51940000  0.57120000  1
  H  H164  1  0.33280000  0.61630000  0.35530000  1
  H  H165  1  0.80060000  0.41050000  0.88730000  1
  H  H166  1  0.13540000  0.99310000  0.54730000  1
  H  H167  1  0.52460000  0.61220000  0.15760000  1
  H  H168  1  0.54390000  0.19660000  0.13680000  1
  H  H169  1  0.77320000  0.68510000  0.90370000  1
  H  H170  1  0.49520000  0.06210000  0.18150000  1
  H  H171  1  0.68270000  0.95270000  0.99310000  1
  H  H172  1  0.27080000  0.35390000  0.40190000  1
  H  H173  1  0.98550000  0.71110000  0.68250000  1
  H  H174  1  0.55090000  0.64470000  0.11630000  1
  H  H175  1  0.78150000  0.50390000  0.88330000  1
  H  H176  1  0.73050000  0.27020000  0.93080000  1
  H  H177  1  0.90300000  0.90690000  0.75390000  1
  H  H178  1  0.18030000  0.20070000  0.47110000  1
  H  H179  1  0.01270000  0.52110000  0.63750000  1
  H  H180  1  0.29860000  0.79280000  0.34700000  1
  H  H181  1  0.61350000  0.93350000  0.02790000  1
  H  H182  1  0.32310000  0.40370000  0.31490000  1
  H  H183  1  0.29440000  0.88780000  0.34240000  1
  H  H184  1  0.13140000  0.12770000  0.50350000  1
  H  H185  1  0.92360000  0.56620000  0.70940000  1
  H  H186  1  0.67580000  0.50690000  0.95270000  1
  H  H187  1  0.06040000  0.65360000  0.56720000  1
  H  H188  1  0.54400000  0.99160000  0.08340000  1
  H  H189  1  0.41080000  0.19010000  0.21510000  1
  H  H190  1  0.58810000  0.38980000  0.03500000  1
  H  H191  1  0.33200000  0.18250000  0.28890000  1
  H  H192  1  0.62740000  0.41660000  0.99160000  1
  H  H193  1  0.50860000  0.55690000  0.10650000  1
  H  H194  1  0.04700000  0.02790000  0.56650000  1
  H  H195  1  0.18250000  0.26130000  0.42370000  1
  H  H196  1  0.41110000  0.67470000  0.19410000  1
  H  H197  1  0.12830000  0.80080000  0.47620000  1
  H  H198  1  0.48020000  0.86170000  0.12210000  1
  H  H199  1  0.89510000  0.62050000  0.70650000  1
  H  H200  1  0.74260000  0.47540000  0.85900000  1
  H  H201  1  0.39550000  0.97620000  0.19920000  1
  H  H202  1  0.43840000  0.70720000  0.15300000  1
  H  H203  1  0.89910000  0.78490000  0.69010000  1
  H  H204  1  0.41420000  0.80590000  0.17470000  1
  H  H205  1  0.47790000  0.03500000  0.11020000  1
  H  H206  1  0.95440000  0.65800000  0.63360000  1
  H  H207  1  0.27990000  0.82530000  0.30590000  1
  H  H208  1  0.81020000  0.58480000  0.77560000  1
  H  H209  1  0.25120000  0.71490000  0.33310000  1
  H  H210  1  0.17610000  0.84870000  0.40490000  1
  H  H211  1  0.13860000  0.35270000  0.44210000  1
  H  H212  1  0.29970000  0.71430000  0.28050000  1
  H  H213  1  0.08870000  0.48050000  0.48910000  1
  H  H214  1  0.15030000  0.15150000  0.42610000  1
  H  H215  1  0.64140000  0.47210000  0.93350000  1
  H  H216  1  0.47510000  0.25690000  0.09890000  1
  H  H217  1  0.18200000  0.22320000  0.39160000  1
  H  H218  1  0.08700000  0.23030000  0.48410000  1
  H  H219  1  0.59470000  0.30080000  0.97620000  1
  H  H220  1  0.41900000  0.90490000  0.15130000  1
  H  H221  1  0.17200000  0.94310000  0.39350000  1
  H  H222  1  0.26360000  0.67290000  0.30190000  1
  H  H223  1  0.65690000  0.74610000  0.90690000  1
  H  H224  1  0.76160000  0.17290000  0.80190000  1
  H  H225  1  0.35440000  0.84700000  0.20720000  1
  H  H226  1  0.03840000  0.15800000  0.51560000  1
  H  H227  1  0.47740000  0.92500000  0.07420000  1
  H  H228  1  0.69560000  0.11630000  0.85530000  1
  H  H229  1  0.03560000  0.08340000  0.50840000  1
  H  H230  1  0.24050000  0.13680000  0.30340000  1
  H  H231  1  0.52150000  0.25130000  0.01750000  1
  H  H232  1  0.39770000  0.62210000  0.13830000  1
  H  H233  1  0.70080000  0.21490000  0.83310000  1
  H  H234  1  0.04320000  0.41630000  0.48590000  1
  H  H235  1  0.69300000  0.58540000  0.83420000  1
  H  H236  1  0.76800000  0.90110000  0.75690000  1
  H  H237  1  0.42970000  0.65130000  0.09510000  1
  H  H238  1  0.63680000  0.15760000  0.88780000  1
  H  H239  1  0.44840000  0.57420000  0.07500000  1
  H  H240  1  0.09760000  0.92580000  0.42500000  1
  H  H241  1  0.98710000  0.88980000  0.53500000  1
  H  H242  1  0.18360000  0.38360000  0.33840000  1
  H  H243  1  0.27280000  0.01750000  0.24870000  1
  H  H244  1  0.15810000  0.87790000  0.36170000  1
  H  H245  1  0.08960000  0.69140000  0.42800000  1
  H  H246  1  0.29450000  0.78570000  0.21950000  1
  H  H247  1  0.09950000  0.26140000  0.41320000  1
  H  H248  1  0.84560000  0.56240000  0.66340000  1
  H  H249  1  0.56550000  0.10650000  0.94310000  1
  H  H250  1  0.94270000  0.81850000  0.56210000  1
  H  H251  1  0.93150000  0.22980000  0.56920000  1
  H  H252  1  0.06850000  0.77020000  0.43080000  1
  H  H253  1  0.05730000  0.18150000  0.43790000  1
  H  H254  1  0.43450000  0.89350000  0.05690000  1
  H  H255  1  0.15440000  0.43760000  0.33660000  1
  H  H256  1  0.90050000  0.73860000  0.58680000  1
  H  H257  1  0.70550000  0.21430000  0.78050000  1
  H  H258  1  0.91040000  0.30860000  0.57200000  1
  H  H259  1  0.84190000  0.12210000  0.63830000  1
  H  H260  1  0.72720000  0.98250000  0.75130000  1
  H  H261  1  0.81640000  0.61640000  0.66160000  1
  H  H262  1  0.01290000  0.11020000  0.46500000  1
  H  H263  1  0.90240000  0.07420000  0.57500000  1
  H  H264  1  0.55160000  0.42580000  0.92500000  1
  H  H265  1  0.36320000  0.84240000  0.11220000  1
  H  H266  1  0.57030000  0.34870000  0.90490000  1
  H  H267  1  0.23200000  0.09890000  0.24310000  1
  H  H268  1  0.30700000  0.41460000  0.16580000  1
  H  H269  1  0.95680000  0.58370000  0.51410000  1
  H  H270  1  0.29920000  0.78510000  0.16690000  1
  H  H271  1  0.60230000  0.37790000  0.86170000  1
  H  H272  1  0.47850000  0.74870000  0.98250000  1
  H  H273  1  0.75950000  0.86320000  0.69660000  1
  H  H274  1  0.96440000  0.91660000  0.49160000  1
  H  H275  1  0.30440000  0.88370000  0.14470000  1
  H  H276  1  0.52260000  0.07500000  0.92580000  1
  H  H277  1  0.96160000  0.84200000  0.48440000  1
  H  H278  1  0.64560000  0.15300000  0.79280000  1
  H  H279  1  0.23840000  0.82710000  0.19810000  1
  H  H280  1  0.34310000  0.25390000  0.09310000  1
  H  H281  1  0.73640000  0.32710000  0.69810000  1
  H  H282  1  0.82800000  0.05690000  0.60650000  1
  H  H283  1  0.58100000  0.09510000  0.84870000  1
  H  H284  1  0.40530000  0.69920000  0.02380000  1
  H  H285  1  0.91300000  0.76970000  0.51590000  1
  H  H286  1  0.81800000  0.77680000  0.60840000  1
  H  H287  1  0.52490000  0.74310000  0.90110000  1
  H  H288  1  0.35860000  0.52790000  0.06650000  1
  H  H289  1  0.84970000  0.84850000  0.57390000  1
  H  H290  1  0.91130000  0.51950000  0.51090000  1
  H  H291  1  0.70030000  0.28570000  0.71950000  1
  H  H292  1  0.86140000  0.64730000  0.55790000  1
  H  H293  1  0.82390000  0.15130000  0.59510000  1
  H  H294  1  0.74880000  0.28510000  0.66690000  1
  H  H295  1  0.18980000  0.41520000  0.22440000  1
  H  H296  1  0.72010000  0.17470000  0.69410000  1
  H  H297  1  0.04560000  0.34200000  0.36640000  1
  H  H298  1  0.52210000  0.96500000  0.88980000  1
  H  H299  1  0.58580000  0.19410000  0.82530000  1
  H  H300  1  0.10090000  0.21510000  0.30990000  1
  H  H301  1  0.56160000  0.29280000  0.84700000  1
  H  H302  1  0.60450000  0.02380000  0.80080000  1
  H  H303  1  0.25740000  0.52460000  0.14100000  1
  H  H304  1  0.10490000  0.37950000  0.29350000  1
  H  H305  1  0.51980000  0.13830000  0.87790000  1
  H  H306  1  0.87170000  0.19920000  0.52380000  1
  H  H307  1  0.58890000  0.32530000  0.80590000  1
  H  H308  1  0.81750000  0.73870000  0.57630000  1
  H  H309  1  0.95300000  0.97210000  0.43350000  1
  H  H310  1  0.49140000  0.44310000  0.89350000  1
  H  H311  1  0.37260000  0.58340000  0.00840000  1
  H  H312  1  0.66800000  0.81750000  0.71110000  1
  H  H313  1  0.41190000  0.61020000  0.96500000  1
  H  H314  1  0.58920000  0.80990000  0.78490000  1
  H  H315  1  0.45600000  0.00840000  0.91660000  1
  H  H316  1  0.93960000  0.34640000  0.43280000  1
  H  H317  1  0.32420000  0.49310000  0.04730000  1
  H  H318  1  0.07640000  0.43380000  0.29060000  1
  H  H319  1  0.86860000  0.87230000  0.49650000  1
  H  H320  1  0.70560000  0.11220000  0.65760000  1
  H  H321  1  0.67690000  0.59630000  0.68510000  1
  H  H322  1  0.38650000  0.06650000  0.97210000  1
  H  H323  1  0.70140000  0.20720000  0.65300000  1
  H  H324  1  0.98730000  0.47890000  0.36250000  1
  H  H325  1  0.81970000  0.79930000  0.52890000  1
  H  H326  1  0.09700000  0.09310000  0.24610000  1
  H  H327  1  0.26950000  0.72980000  0.06920000  1
  H  H328  1  0.21850000  0.49610000  0.11670000  1
  H  H329  1  0.44910000  0.35530000  0.88370000  1
  H  H330  1  0.01450000  0.28890000  0.31750000  1
  H  H331  1  0.72920000  0.64610000  0.59810000  1
  H  H332  1  0.31730000  0.04730000  0.00690000  1
  H  H333  1  0.50480000  0.93790000  0.81850000  1
  H  H334  1  0.22680000  0.31490000  0.09630000  1
  H  H335  1  0.45610000  0.80340000  0.86320000  1
  H  H336  1  0.47540000  0.38780000  0.84240000  1
  H  H337  1  0.86460000  0.00690000  0.45270000  1
  H  H338  1  0.19940000  0.58950000  0.11270000  1
  H  H339  1  0.66720000  0.38370000  0.64470000  1
  H  H340  1  0.88210000  0.48060000  0.42880000  1
  H  H341  1  0.56380000  0.59310000  0.74610000  1
  H  H342  1  0.22160000  0.16580000  0.08540000  1
  H  H343  1  0.68810000  0.14470000  0.61630000  1
  H  H344  1  0.28800000  0.65800000  0.01560000  1
  H  H345  1  0.51400000  0.28050000  0.78570000  1
  H  H346  1  0.58430000  0.16690000  0.71490000  1
  H  H347  1  0.59140000  0.34700000  0.70720000  1
  H  H348  1  0.58020000  0.21950000  0.71430000  1
  H  H349  1  0.68220000  0.34240000  0.61220000  1
  H  H350  1  0.85340000  0.93180000  0.43640000  1
  H  H351  1  0.90160000  0.91050000  0.38730000  1
  H  H352  1  0.44600000  0.01560000  0.84200000  1
  H  H353  1  0.22160000  0.56820000  0.06360000  1
  H  H354  1  0.92300000  0.97540000  0.35900000  1
  H  H355  1  0.62760000  0.93280000  0.65360000  1
  H  H356  1  0.20900000  0.80860000  0.07200000  1
  H  H357  1  0.60520000  0.30590000  0.67470000  1
  H  H358  1  0.79030000  0.24870000  0.48250000  1
  H  H359  1  0.42360000  0.92610000  0.84850000  1
  H  H360  1  0.12470000  0.40190000  0.14610000  1
  H  H361  1  0.49930000  0.06920000  0.77020000  1
  H  H362  1  0.43650000  0.30190000  0.82710000  1
  H  H363  1  0.32330000  0.68150000  0.93790000  1
  H  H364  1  0.87740000  0.55830000  0.38330000  1
  H  H365  1  0.28200000  0.14100000  0.97540000  1
  H  H366  1  0.87630000  0.61060000  0.37820000  1
  H  H367  1  0.46610000  0.33310000  0.78510000  1
  H  H368  1  0.79210000  0.58180000  0.45580000  1
  H  H369  1  0.58800000  0.86640000  0.65800000  1
  H  H370  1  0.23740000  0.62770000  0.00350000  1
  H  H371  1  0.87730000  0.30340000  0.36320000  1
  H  H372  1  0.56550000  0.19810000  0.67290000  1
  H  H373  1  0.10540000  0.55990000  0.13270000  1
  H  H374  1  0.36510000  0.00350000  0.87230000  1
  H  H375  1  0.82470000  0.85810000  0.40730000  1
  H  H376  1  0.83090000  0.24310000  0.40110000  1
  H  H377  1  0.04170000  0.09630000  0.18510000  1
  H  H378  1  0.48730000  0.91320000  0.73860000  1
  H  H379  1  0.60160000  0.79350000  0.62050000  1
  H  H380  1  0.88740000  0.08540000  0.33420000  1
  H  H381  1  0.28980000  0.06360000  0.93180000  1
  H  H382  1  0.21460000  0.11670000  0.00390000  1
  H  H383  1  0.83130000  0.00390000  0.38330000  1
  H  H384  1  0.28120000  0.84640000  0.93280000  1
  H  H385  1  0.46100000  0.51750000  0.74870000  1
  H  H386  1  0.51760000  0.07200000  0.69140000  1
  H  H387  1  0.68910000  0.92880000  0.51940000  1
  H  H388  1  0.12610000  0.54420000  0.08180000  1
  H  H389  1  0.42640000  0.89160000  0.77680000  1
  H  H390  1  0.76190000  0.63270000  0.44010000  1
  H  H391  1  0.28890000  0.11270000  0.91050000  1
  H  H392  1  0.63300000  0.79060000  0.56620000  1
  H  H393  1  0.42890000  0.98410000  0.76970000  1
  H  H394  1  0.27210000  0.65150000  0.92610000  1
  H  H395  1  0.37910000  0.78890000  0.81750000  1
  H  H396  1  0.10500000  0.22440000  0.08480000  1
  H  H397  1  0.37410000  0.71510000  0.80990000  1
  H  H398  1  0.06720000  0.33840000  0.11640000  1
  H  H399  1  0.09010000  0.64190000  0.09270000  1
  H  H400  1  0.19860000  0.73030000  0.98410000  1
  H  H401  1  0.94380000  0.42370000  0.23870000  1
  H  H402  1  0.90520000  0.39160000  0.27680000  1
  H  H403  1  0.73930000  0.88330000  0.44170000  1
  H  H404  1  0.88100000  0.47110000  0.29930000  1
  H  H405  1  0.52480000  0.40490000  0.65130000  1
  H  H406  1  0.81720000  0.59270000  0.35810000  1
  H  H407  1  0.61510000  0.39350000  0.55690000  1
  H  H408  1  0.65020000  0.86250000  0.52110000  1
  H  H409  1  0.58580000  0.72440000  0.58480000  1
  H  H410  1  0.75210000  0.95580000  0.41820000  1
  H  H411  1  0.42600000  0.59890000  0.74310000  1
  H  H412  1  0.66480000  0.61670000  0.50390000  1
  H  H413  1  0.79800000  0.94010000  0.36730000  1
  H  H414  1  0.53600000  0.36170000  0.62210000  1
  H  H415  1  0.09200000  0.33660000  0.06240000  1
  H  H416  1  0.80180000  0.42610000  0.34850000  1
  H  H417  1  0.34860000  0.97110000  0.79930000  1
  H  H418  1  0.71480000  0.56360000  0.43180000  1
  H  H419  1  0.22590000  0.76140000  0.91320000  1
  H  H420  1  0.99130000  0.44210000  0.14730000  1
  H  H421  1  0.20850000  0.98060000  0.92880000  1
  H  H422  1  0.62850000  0.54730000  0.50690000  1
  H  H423  1  0.74550000  0.87820000  0.38940000  1
  H  H424  1  0.39380000  0.92370000  0.73870000  1
  H  H425  1  0.75910000  0.50350000  0.37230000  1
  H  H426  1  0.42910000  0.47620000  0.69920000  1
  H  H427  1  0.17030000  0.08180000  0.95580000  1
  H  H428  1  0.02660000  0.14610000  0.09810000  1
  H  H429  1  0.01310000  0.62180000  0.11060000  1
  H  H430  1  0.31930000  0.63680000  0.80340000  1
  H  H431  1  0.06430000  0.61670000  0.05830000  1
  H  H432  1  0.14790000  0.70070000  0.97110000  1
  H  H433  1  0.13730000  0.57120000  0.98060000  1
  H  H434  1  0.52720000  0.66580000  0.58540000  1
  H  H435  1  0.24600000  0.84200000  0.86640000  1
  H  H436  1  0.16530000  0.13270000  0.94010000  1
  H  H437  1  0.82940000  0.08480000  0.27560000  1
  H  H438  1  0.98440000  0.29350000  0.12050000  1
  H  H439  1  0.81600000  0.30990000  0.28490000  1
  H  H440  1  0.86090000  0.41320000  0.23860000  1
  H  H441  1  0.68790000  0.61270000  0.41050000  1
  H  H442  1  0.52340000  0.42500000  0.57420000  1
  H  H443  1  0.69010000  0.24610000  0.40690000  1
  H  H444  1  0.20320000  0.72320000  0.89160000  1
  H  H445  1  0.47800000  0.83840000  0.61640000  1
  H  H446  1  0.92860000  0.06240000  0.16340000  1
  H  H447  1  0.23200000  0.09270000  0.85810000  1
  H  H448  1  0.28100000  0.42800000  0.80860000  1
  H  H449  1  0.06920000  0.48910000  0.01950000  1
  H  H450  1  0.81730000  0.48410000  0.26970000  1
  H  H451  1  0.60160000  0.64100000  0.47540000  1
  H  H452  1  0.01020000  0.29060000  0.06620000  1
  H  H453  1  0.50900000  0.83660000  0.56240000  1
  H  H454  1  0.05830000  0.01950000  0.01090000  1
  H  H455  1  0.33870000  0.43080000  0.72980000  1
  H  H456  1  0.90560000  0.11640000  0.16160000  1
  H  H457  1  0.41930000  0.94210000  0.64730000  1
  H  H458  1  0.18100000  0.05830000  0.88330000  1
  H  H459  1  0.21400000  0.56720000  0.84640000  1
  H  H460  1  0.57780000  0.01090000  0.48050000  1
  H  H461  1  0.73880000  0.43790000  0.31850000  1
  H  H462  1  0.13250000  0.76130000  0.92370000  1
  H  H463  1  0.47090000  0.98590000  0.58370000  1
  H  H464  1  0.57490000  0.56650000  0.47210000  1
  H  H465  1  0.88760000  0.36640000  0.15800000  1
  H  H466  1  0.95950000  0.48590000  0.08370000  1
  H  H467  1  0.63800000  0.18510000  0.40370000  1
  H  H468  1  0.05460000  0.91630000  0.98590000  1
  H  H469  1  0.69640000  0.51560000  0.34200000  1
  H  H470  1  0.61900000  0.50840000  0.41660000  1
  H  H471  1  0.17130000  0.97890000  0.86250000  1
  H  H472  1  0.67270000  0.09810000  0.35390000  1
  H  H473  1  0.22210000  0.87950000  0.79350000  1
  H  H474  1  0.80340000  0.31750000  0.21110000  1
  H  H475  1  0.13490000  0.11060000  0.87820000  1
  H  H476  1  0.62310000  0.46500000  0.38980000  1
  H  H477  1  0.03380000  0.63750000  0.97890000  1
  H  H478  1  0.80080000  0.06620000  0.20940000  1
  H  H479  1  0.06660000  0.85270000  0.94210000  1
  C  C480  1  0.18760000  0.90790000  0.80990000  1
  C  C481  1  0.75925000  0.33278000  0.23532000  1
  C  C482  1  0.39715000  0.78482000  0.59328000  1
  C  C483  1  0.11683000  0.62188000  0.87086000  1
  C  C484  1  0.01596000  0.91702000  0.96986000  1
  C  C485  1  0.56702000  0.03014000  0.41702000  1
  C  C486  1  0.29829000  0.64959000  0.68323000  1
  C  C487  1  0.92935000  0.37584000  0.04866000  1
  C  C488  1  0.59795000  0.05689000  0.37921000  1
  C  C489  1  0.06337000  0.64497000  0.90949000  1
  C  C490  1  0.34725000  0.91848000  0.62002000  1
  C  C491  1  0.02284000  0.87921000  0.94311000  1
  C  C492  1  0.36595000  0.74800000  0.59170000  1
  C  C493  1  0.23350000  0.67175000  0.72045000  1
  C  C494  1  0.82278000  0.41848000  0.12636000  1
  C  C495  1  0.40414000  0.97102000  0.54470000  1
  C  C496  1  0.48350000  0.40755000  0.46285000  1
  C  C497  1  0.34409000  0.52001000  0.59881000  1
  C  C498  1  0.79166000  0.09051000  0.14497000  1
  C  C499  1  0.62753000  0.37801000  0.30793000  1
  C  C500  1  0.81500000  0.91060000  0.11720000  1
  C  C501  1  0.52054000  0.22272000  0.40960000  1
  C  C502  1  0.80519000  0.04866000  0.12416000  1
  C  C503  1  0.10400000  0.90980000  0.81880000  1
  C  C504  1  0.94884000  0.95530000  0.97102000  1
  C  C505  1  0.50606000  0.30377000  0.41331000  1
  C  C506  1  0.27712000  0.50849000  0.63947000  1
  C  C507  1  0.86781000  0.41612000  0.04786000  1
  C  C508  1  0.68628000  0.36011000  0.22653000  1
  C  C509  1  0.40814000  0.42509000  0.50263000  1
  C  C510  1  0.99750000  0.69010000  0.90790000  1
  C  C511  1  0.98582000  0.53014000  0.91702000  1
  C  C512  1  0.32127000  0.91826000  0.58040000  1
  C  C513  1  0.55427000  0.40345000  0.34461000  1
  C  C514  1  0.64824000  0.55212000  0.25060000  1
  C  C515  1  0.48620000  0.18120000  0.40980000  1
  C  C516  1  0.22449000  0.54998000  0.67024000  1
  C  C517  1  0.81100000  0.25790000  0.08170000  1
  C  C518  1  0.34873000  0.94625000  0.54209000  1
  C  C519  1  0.68316000  0.55367000  0.20321000  1
  C  C520  1  0.96727000  0.87998000  0.91848000  1
  C  C521  1  0.62264000  0.38234000  0.26278000  1
  C  C522  1  0.47070000  0.26890000  0.41310000  1
  C  C523  1  0.76129000  0.12914000  0.12188000  1
  C  C524  1  0.35996000  0.38813000  0.51955000  1
  C  C525  1  0.91986000  0.52898000  0.95530000  1
  C  C526  1  0.80340000  0.89920000  0.06760000  1
  C  C527  1  0.30572000  0.55137000  0.56479000  1
  C  C528  1  0.15680000  0.54018000  0.71182000  1
  C  C529  1  0.78393000  0.04786000  0.08388000  1
  C  C530  1  0.59400000  0.52519000  0.26901000  1
  C  C531  1  0.29230000  0.40370000  0.56410000  1
  C  C532  1  0.10730000  0.58170000  0.74210000  1
  C  C533  1  0.11620000  0.91310000  0.73110000  1
  C  C534  1  0.06986000  0.90960000  0.77728000  1
  C  C535  1  0.96595000  0.55689000  0.87921000  1
  C  C536  1  0.80302000  0.28818000  0.04018000  1
  C  C537  1  0.93220000  0.38280000  0.91060000  1
  C  C538  1  0.42424000  0.58678000  0.41794000  1
  C  C539  1  0.66498000  0.52788000  0.17276000  1
  C  C540  1  0.89082000  0.95791000  0.94625000  1
  C  C541  1  0.92280000  0.68120000  0.90980000  1
  C  C542  1  0.74126000  0.12636000  0.08152000  1
  C  C543  1  0.90167000  0.91960000  0.91826000  1
  C  C544  1  0.31895000  0.95213000  0.50097000  1
  C  C545  1  0.22560000  0.11720000  0.58940000  1
  C  C546  1  0.57537000  0.50054000  0.23912000  1
  C  C547  1  0.40450000  0.19010000  0.40790000  1
  C  C548  1  0.43756000  0.61523000  0.37405000  1
  C  C549  1  0.56890000  0.08170000  0.24210000  1
  C  C550  1  0.35385000  0.12416000  0.45134000  1
  C  C551  1  0.39165000  0.54663000  0.41287000  1
  C  C552  1  0.73990000  0.90370000  0.06410000  1
  C  C553  1  0.20260000  0.06760000  0.60080000  1
  C  C554  1  0.59120000  0.04018000  0.21182000  1
  C  C555  1  0.60922000  0.50154000  0.19082000  1
  C  C556  1  0.22980000  0.39920000  0.56760000  1
  C  C557  1  0.83707000  0.55375000  0.95791000  1
  C  C558  1  0.38217000  0.14497000  0.40949000  1
  C  C559  1  0.33179000  0.08388000  0.45214000  1
  C  C560  1  0.25179000  0.66232000  0.52690000  1
  C  C561  1  0.08063000  0.91331000  0.69623000  1
  C  C562  1  0.72553000  0.32976000  0.04998000  1
  C  C563  1  0.99043000  0.90672000  0.78482000  1
  C  C564  1  0.15720000  0.41060000  0.61720000  1
  C  C565  1  0.81992000  0.99903000  0.95213000  1
  C  C566  1  0.77205000  0.54787000  0.99903000  1
  C  C567  1  0.87100000  0.43240000  0.89920000  1
  C  C568  1  0.59475000  0.27955000  0.17175000  1
  C  C569  1  0.88575000  0.58152000  0.87998000  1
  C  C570  1  0.39043000  0.12188000  0.37086000  1
  C  C571  1  0.84730000  0.76890000  0.91310000  1
  C  C572  1  0.59203000  0.23532000  0.16722000  1
  C  C573  1  0.84714000  0.72272000  0.90960000  1
  C  C574  1  0.73236000  0.88813000  0.01955000  1
  C  C575  1  0.58589000  0.47310000  0.16232000  1
  C  C576  1  0.36762000  0.08152000  0.37364000  1
  C  C577  1  0.14360000  0.06410000  0.59630000  1
  C  C578  1  0.81993000  0.58174000  0.91960000  1
  C  C579  1  0.44004000  0.94633000  0.29679000  1
  C  C580  1  0.12049000  0.01955000  0.61187000  1
  C  C581  1  0.11458000  0.76278000  0.61766000  1
  C  C582  1  0.08719000  0.72653000  0.63989000  1
  C  C583  1  0.55529000  0.04998000  0.17024000  1
  C  C584  1  0.71439000  0.36053000  0.00849000  1
  C  C585  1  0.35701000  0.63943000  0.36155000  1
  C  C586  1  0.57492000  0.00849000  0.13947000  1
  C  C587  1  0.51582000  0.69238000  0.19558000  1
  C  C588  1  0.40378000  0.80762000  0.30442000  1
  C  C589  1  0.80400000  0.43590000  0.90370000  1
  C  C590  1  0.95765000  0.90830000  0.74800000  1
  C  C591  1  0.55212000  0.31677000  0.14959000  1
  C  C592  1  0.45096000  0.94788000  0.24940000  1
  C  C593  1  0.19996000  0.69082000  0.49846000  1
  C  C594  1  0.10112000  0.84461000  0.59655000  1
  C  C595  1  0.64291000  0.43521000  0.05137000  1
  C  C596  1  0.36562000  0.97212000  0.32724000  1
  C  C597  1  0.77686000  0.80377000  0.91331000  1
  C  C598  1  0.37008000  0.67118000  0.31926000  1
  C  C599  1  0.06454000  0.80793000  0.62199000  1
  C  C600  1  0.54639000  0.22653000  0.13989000  1
  C  C601  1  0.18551000  0.73912000  0.49946000  1
  C  C602  1  0.73683000  0.20321000  0.94633000  1
  C  C603  1  0.77525000  0.71518000  0.90672000  1
  C  C604  1  0.22892000  0.49903000  0.45213000  1
  C  C605  1  0.26047000  0.41960000  0.41826000  1
  C  C606  1  0.00543000  0.73532000  0.66722000  1
  C  C607  1  0.08433000  0.54786000  0.58388000  1
  C  C608  1  0.66414000  0.92509000  0.00263000  1
  C  C609  1  0.69286000  0.17276000  0.97212000  1
  C  C610  1  0.08923000  0.00263000  0.57491000  1
  C  C611  1  0.63590000  0.40119000  0.02001000  1
  C  C612  1  0.23427000  0.37998000  0.41848000  1
  C  C613  1  0.20502000  0.45791000  0.44625000  1
  C  C614  1  0.19548000  0.91287000  0.45337000  1
  C  C615  1  0.70036000  0.25060000  0.94788000  1
  C  C616  1  0.02199000  0.54866000  0.62416000  1
  C  C617  1  0.05365000  0.96285000  0.59245000  1
  C  C618  1  0.50356000  0.63845000  0.13943000  1
  C  C619  1  0.57812000  0.05137000  0.06479000  1
  C  C620  1  0.28144000  0.86155000  0.36057000  1
  C  C621  1  0.75191000  0.48045000  0.88813000  1
  C  C622  1  0.31066000  0.81926000  0.32882000  1
  C  C623  1  0.53709000  0.02001000  0.09881000  1
  C  C624  1  0.16226000  0.67276000  0.47212000  1
  C  C625  1  0.38605000  0.40830000  0.24800000  1
  C  C626  1  0.05086000  0.62636000  0.58152000  1
  C  C627  1  0.98152000  0.81677000  0.64959000  1
  C  C628  1  0.45874000  0.68074000  0.17118000  1
  C  C629  1  0.50554000  0.30793000  0.12199000  1
  C  C630  1  0.95395000  0.77955000  0.67175000  1
  C  C631  1  0.50498000  0.26278000  0.11766000  1
  C  C632  1  0.38820000  0.97481000  0.23099000  1
  C  C633  1  0.97286000  0.59051000  0.64497000  1
  C  C634  1  0.70565000  0.75200000  0.90830000  1
  C  C635  1  0.13699000  0.76901000  0.47481000  1
  C  C636  1  0.30158000  0.99846000  0.30918000  1
  C  C637  1  0.98769000  0.62914000  0.62188000  1
  C  C638  1  0.61076000  0.19082000  0.99846000  1
  C  C639  1  0.64610000  0.90755000  0.96285000  1
  C  C640  1  0.56172000  0.58713000  0.04663000  1
  C  C641  1  0.31803000  0.40672000  0.28482000  1
  C  C642  1  0.15484000  0.37921000  0.44311000  1
  C  C643  1  0.28860000  0.69558000  0.30762000  1
  C  C644  1  0.12484000  0.45530000  0.47102000  1
  C  C645  1  0.90540000  0.59210000  0.69010000  1
  C  C646  1  0.37430000  0.17175000  0.22045000  1
  C  C647  1  0.61919000  0.26901000  0.97481000  1
  C  C648  1  0.32735000  0.16722000  0.26468000  1
  C  C649  1  0.66677000  0.49737000  0.92509000  1
  C  C650  1  0.13138000  0.21182000  0.45982000  1
  C  C651  1  0.55899000  0.16232000  0.02690000  1
  C  C652  1  0.12949000  0.06479000  0.44863000  1
  C  C653  1  0.31503000  0.99946000  0.26088000  1
  C  C654  1  0.48898000  0.58206000  0.08678000  1
  C  C655  1  0.57591000  0.23912000  0.99946000  1
  C  C656  1  0.08341000  0.13947000  0.49151000  1
  C  C657  1  0.18839000  0.87405000  0.38477000  1
  C  C658  1  0.15782000  0.91794000  0.41322000  1
  C  C659  1  0.15060000  0.24210000  0.41830000  1
  C  C660  1  0.09716000  0.41702000  0.46986000  1
  C  C661  1  0.44721000  0.62595000  0.11523000  1
  C  C662  1  0.64885000  0.04663000  0.91287000  1
  C  C663  1  0.11363000  0.70321000  0.44633000  1
  C  C664  1  0.22131000  0.02690000  0.33768000  1
  C  C665  1  0.10527000  0.17024000  0.45002000  1
  C  C666  1  0.45772000  0.34461000  0.09655000  1
  C  C667  1  0.42684000  0.88477000  0.12595000  1
  C  C668  1  0.36889000  0.14959000  0.18323000  1
  C  C669  1  0.10116000  0.75060000  0.44788000  1
  C  C670  1  0.27292000  0.13989000  0.27347000  1
  C  C671  1  0.69767000  0.90345000  0.84461000  1
  C  C672  1  0.36052000  0.82882000  0.18074000  1
  C  C673  1  0.05710000  0.09881000  0.47999000  1
  C  C674  1  0.76040000  0.58690000  0.76890000  1
  C  C675  1  0.24326000  0.40960000  0.27728000  1
  C  C676  1  0.60895000  0.53715000  0.90755000  1
  C  C677  1  0.70820000  0.19558000  0.80762000  1
  C  C678  1  0.83260000  0.59020000  0.68120000  1
  C  C679  1  0.42896000  0.91322000  0.08206000  1
  C  C680  1  0.30983000  0.41331000  0.19623000  1
  C  C681  1  0.31347000  0.12199000  0.19207000  1
  C  C682  1  0.26776000  0.11766000  0.23722000  1
  C  C683  1  0.64201000  0.13943000  0.86155000  1
  C  C684  1  0.35799000  0.86057000  0.13845000  1
  C  C685  1  0.73224000  0.88234000  0.76278000  1
  C  C686  1  0.68653000  0.87801000  0.80793000  1
  C  C687  1  0.69017000  0.58669000  0.80377000  1
  C  C688  1  0.57104000  0.08678000  0.91794000  1
  C  C689  1  0.16740000  0.40980000  0.31880000  1
  C  C690  1  0.29180000  0.80442000  0.19238000  1
  C  C691  1  0.39105000  0.46285000  0.09245000  1
  C  C692  1  0.75674000  0.59040000  0.72272000  1
  C  C693  1  0.23960000  0.41310000  0.23110000  1
  C  C694  1  0.94290000  0.90119000  0.52001000  1
  C  C695  1  0.63948000  0.17118000  0.81926000  1
  C  C696  1  0.30233000  0.09655000  0.15539000  1
  C  C697  1  0.72708000  0.86011000  0.72653000  1
  C  C698  1  0.89884000  0.24940000  0.55212000  1
  C  C699  1  0.63111000  0.85041000  0.81677000  1
  C  C700  1  0.57316000  0.11523000  0.87405000  1
  C  C701  1  0.54228000  0.65539000  0.90345000  1
  C  C702  1  0.89473000  0.82976000  0.54998000  1
  C  C703  1  0.77869000  0.97310000  0.66232000  1
  C  C704  1  0.88637000  0.29679000  0.55367000  1
  C  C705  1  0.35115000  0.95337000  0.08713000  1
  C  C706  1  0.55279000  0.37405000  0.88477000  1
  C  C707  1  0.90284000  0.58298000  0.53014000  1
  C  C708  1  0.84940000  0.75790000  0.58170000  1
  C  C709  1  0.84218000  0.08206000  0.58678000  1
  C  C710  1  0.81161000  0.12595000  0.61523000  1
  C  C711  1  0.91659000  0.86053000  0.50849000  1
  C  C712  1  0.42409000  0.76088000  0.00054000  1
  C  C713  1  0.51102000  0.41794000  0.91322000  1
  C  C714  1  0.68497000  0.00054000  0.73912000  1
  C  C715  1  0.87051000  0.93521000  0.55137000  1
  C  C716  1  0.44101000  0.83768000  0.97310000  1
  C  C717  1  0.86862000  0.78818000  0.54018000  1
  C  C718  1  0.33323000  0.50263000  0.07491000  1
  C  C719  1  0.67265000  0.83278000  0.73532000  1
  C  C720  1  0.38081000  0.73099000  0.02519000  1
  C  C721  1  0.62570000  0.82825000  0.77955000  1
  C  C722  1  0.09460000  0.40790000  0.30990000  1
  C  C723  1  0.87516000  0.54470000  0.52898000  1
  C  C724  1  0.71140000  0.30442000  0.69238000  1
  C  C725  1  0.84516000  0.62079000  0.55689000  1
  C  C726  1  0.68197000  0.59328000  0.71518000  1
  C  C727  1  0.43828000  0.41287000  0.95337000  1
  C  C728  1  0.35390000  0.09245000  0.03715000  1
  C  C729  1  0.38924000  0.80918000  0.00154000  1
  C  C730  1  0.01231000  0.37086000  0.37812000  1
  C  C731  1  0.69842000  0.00154000  0.69082000  1
  C  C732  1  0.86301000  0.23099000  0.52519000  1
  C  C733  1  0.29435000  0.24800000  0.09170000  1
  C  C734  1  0.02714000  0.40949000  0.35503000  1
  C  C735  1  0.61180000  0.02519000  0.76901000  1
  C  C736  1  0.49502000  0.73722000  0.88234000  1
  C  C737  1  0.04605000  0.22045000  0.32825000  1
  C  C738  1  0.49446000  0.69207000  0.87801000  1
  C  C739  1  0.54126000  0.31926000  0.82882000  1
  C  C740  1  0.01848000  0.18323000  0.35041000  1
  C  C741  1  0.94914000  0.37364000  0.41848000  1
  C  C742  1  0.61395000  0.59170000  0.75200000  1
  C  C743  1  0.83774000  0.32724000  0.52788000  1
  C  C744  1  0.46291000  0.97999000  0.90119000  1
  C  C745  1  0.68934000  0.18074000  0.67118000  1
  C  C746  1  0.24809000  0.51955000  0.11187000  1
  C  C747  1  0.71856000  0.13845000  0.63943000  1
  C  C748  1  0.42188000  0.94863000  0.93521000  1
  C  C749  1  0.49644000  0.36155000  0.86057000  1
  C  C750  1  0.94635000  0.03715000  0.40755000  1
  C  C751  1  0.97801000  0.45134000  0.37584000  1
  C  C752  1  0.29964000  0.74940000  0.05212000  1
  C  C753  1  0.80452000  0.08713000  0.54663000  1
  C  C754  1  0.79498000  0.54209000  0.55375000  1
  C  C755  1  0.76573000  0.62002000  0.58152000  1
  C  C756  1  0.36410000  0.59881000  0.97999000  1
  C  C757  1  0.91077000  0.99737000  0.42509000  1
  C  C758  1  0.30714000  0.82724000  0.02788000  1
  C  C759  1  0.33586000  0.07491000  0.99737000  1
  C  C760  1  0.91567000  0.45214000  0.41612000  1
  C  C761  1  0.99457000  0.26468000  0.33278000  1
  C  C762  1  0.73953000  0.58040000  0.58174000  1
  C  C763  1  0.77108000  0.50097000  0.54787000  1
  C  C764  1  0.22475000  0.28482000  0.09328000  1
  C  C765  1  0.26317000  0.79679000  0.05367000  1
  C  C766  1  0.81449000  0.26088000  0.50054000  1
  C  C767  1  0.45361000  0.77347000  0.86011000  1
  C  C768  1  0.93546000  0.19207000  0.37801000  1
  C  C769  1  0.62992000  0.32882000  0.68074000  1
  C  C770  1  0.22314000  0.19623000  0.08669000  1
  C  C771  1  0.63438000  0.02788000  0.67276000  1
  C  C772  1  0.35709000  0.56479000  0.94863000  1
  C  C773  1  0.89888000  0.15539000  0.40345000  1
  C  C774  1  0.80004000  0.30918000  0.50154000  1
  C  C775  1  0.54904000  0.05212000  0.75060000  1
  C  C776  1  0.44788000  0.68323000  0.85041000  1
  C  C777  1  0.04235000  0.09170000  0.25200000  1
  C  C778  1  0.19600000  0.56410000  0.09630000  1
  C  C779  1  0.59622000  0.19238000  0.69558000  1
  C  C780  1  0.48418000  0.30762000  0.80442000  1
  C  C781  1  0.42508000  0.99151000  0.86053000  1
  C  C782  1  0.64299000  0.36057000  0.63845000  1
  C  C783  1  0.28561000  0.63947000  0.99151000  1
  C  C784  1  0.44471000  0.95002000  0.82976000  1
  C  C785  1  0.91281000  0.27347000  0.36011000  1
  C  C786  1  0.88542000  0.23722000  0.38234000  1
  C  C787  1  0.87951000  0.98045000  0.38813000  1
  C  C788  1  0.55996000  0.05367000  0.70321000  1
  C  C789  1  0.18007000  0.41826000  0.08040000  1
  C  C790  1  0.85640000  0.93590000  0.40370000  1
  C  C791  1  0.63238000  0.91848000  0.62636000  1
  C  C792  1  0.41411000  0.52690000  0.83768000  1
  C  C793  1  0.26764000  0.11187000  0.98045000  1
  C  C794  1  0.15286000  0.27728000  0.09040000  1
  C  C795  1  0.40797000  0.76468000  0.83278000  1
  C  C796  1  0.15270000  0.23110000  0.08690000  1
  C  C797  1  0.60957000  0.87812000  0.62914000  1
  C  C798  1  0.11425000  0.41848000  0.12002000  1
  C  C799  1  0.40525000  0.72045000  0.82825000  1
  C  C800  1  0.12900000  0.56760000  0.10080000  1
  C  C801  1  0.22795000  0.45213000  0.00097000  1
  C  C802  1  0.18008000  0.00097000  0.04787000  1
  C  C803  1  0.84280000  0.58940000  0.38280000  1
  C  C804  1  0.00957000  0.09328000  0.21518000  1
  C  C805  1  0.27447000  0.67024000  0.95002000  1
  C  C806  1  0.91937000  0.08669000  0.30377000  1
  C  C807  1  0.74821000  0.33768000  0.47310000  1
  C  C808  1  0.66821000  0.91612000  0.54786000  1
  C  C809  1  0.61783000  0.85503000  0.59051000  1
  C  C810  1  0.16293000  0.44625000  0.04209000  1
  C  C811  1  0.77020000  0.60080000  0.43240000  1
  C  C812  1  0.39078000  0.49846000  0.80918000  1
  C  C813  1  0.40880000  0.95982000  0.78818000  1
  C  C814  1  0.79740000  0.93240000  0.39920000  1
  C  C815  1  0.26010000  0.09630000  0.93590000  1
  C  C816  1  0.60835000  0.45337000  0.58713000  1
  C  C817  1  0.64615000  0.87584000  0.54866000  1
  C  C818  1  0.43110000  0.91830000  0.75790000  1
  C  C819  1  0.56244000  0.38477000  0.62595000  1
  C  C820  1  0.59550000  0.80990000  0.59210000  1
  C  C821  1  0.42463000  0.49946000  0.76088000  1
  C  C822  1  0.77440000  0.88280000  0.41060000  1
  C  C823  1  0.68105000  0.04787000  0.49903000  1
  C  C824  1  0.09833000  0.08040000  0.08174000  1
  C  C825  1  0.25874000  0.87364000  0.91848000  1
  C  C826  1  0.07720000  0.31880000  0.09020000  1
  C  C827  1  0.10918000  0.04209000  0.05375000  1
  C  C828  1  0.33502000  0.47212000  0.82724000  1
  C  C829  1  0.57576000  0.41322000  0.58206000  1
  C  C830  1  0.06780000  0.61720000  0.08940000  1
  C  C831  1  0.19698000  0.71182000  0.95982000  1
  C  C832  1  0.03405000  0.44311000  0.12079000  1
  C  C833  1  0.93014000  0.09040000  0.22272000  1
  C  C834  1  0.88380000  0.08690000  0.26890000  1
  C  C835  1  0.89270000  0.41830000  0.25790000  1
  C  C836  1  0.70770000  0.59630000  0.43590000  1
  C  C837  1  0.40600000  0.47481000  0.73099000  1
  C  C838  1  0.21607000  0.95214000  0.91612000  1
  C  C839  1  0.84320000  0.45982000  0.28818000  1
  C  C840  1  0.69428000  0.44863000  0.43521000  1
  C  C841  1  0.19660000  0.10080000  0.93240000  1
  C  C842  1  0.08014000  0.47102000  0.04470000  1
  C  C843  1  0.64004000  0.61187000  0.48045000  1
  C  C844  1  0.23871000  0.87086000  0.87812000  1
  C  C845  1  0.52930000  0.73110000  0.58690000  1
  C  C846  1  0.37736000  0.61766000  0.73722000  1
  C  C847  1  0.03273000  0.12002000  0.08152000  1
  C  C848  1  0.31684000  0.44633000  0.79679000  1
  C  C849  1  0.65127000  0.05375000  0.45791000  1
  C  C850  1  0.18900000  0.74210000  0.91830000  1
  C  C851  1  0.77551000  0.45002000  0.32976000  1
  C  C852  1  0.51380000  0.81880000  0.59020000  1
  C  C853  1  0.35176000  0.44788000  0.74940000  1
  C  C854  1  0.44573000  0.59655000  0.65539000  1
  C  C855  1  0.67873000  0.08174000  0.41960000  1
  C  C856  1  0.01418000  0.46986000  0.08298000  1
  C  C857  1  0.00250000  0.30990000  0.09210000  1
  C  C858  1  0.59186000  0.57491000  0.49737000  1
  C  C859  1  0.31372000  0.63989000  0.77347000  1
  C  C860  1  0.13219000  0.58388000  0.95214000  1
  C  C861  1  0.72288000  0.49151000  0.36053000  1
  C  C862  1  0.49394000  0.69623000  0.58669000  1
  C  C863  1  0.05116000  0.04470000  0.02898000  1
  C  C864  1  0.89600000  0.09020000  0.18120000  1
  C  C865  1  0.19481000  0.95134000  0.87584000  1
  C  C866  1  0.47946000  0.77728000  0.59040000  1
  C  C867  1  0.18500000  0.08940000  0.88280000  1
  C  C868  1  0.37247000  0.62199000  0.69207000  1
  C  C869  1  0.20834000  0.90949000  0.85503000  1
  C  C870  1  0.65591000  0.47999000  0.40119000  1
  C  C871  1  0.51650000  0.59245000  0.53715000  1
  C  C872  1  0.59586000  0.02898000  0.45530000  1
  C  C873  1  0.17722000  0.58152000  0.87364000  1
  C  C874  1  0.76650000  0.32825000  0.27955000  1
  C  C875  1  0.63405000  0.25200000  0.40830000  1
  C  C876  1  0.97716000  0.12079000  0.05689000  1
  C  C877  1  0.65275000  0.08152000  0.37998000  1
  C  C878  1  0.93663000  0.35503000  0.09051000  1
  C  C879  1  0.40205000  0.94311000  0.62079000  1
  C  C880  1  0.07065000  0.62416000  0.95134000  1
  C  C881  1  0.70171000  0.35041000  0.31677000  1
  C  C882  1  0.43298000  0.96986000  0.58298000  1
  C  C883  1  0.98404000  0.08298000  0.03014000  1
  C  C884  1  0.88317000  0.37812000  0.12914000  1
  C  C885  1  0.60285000  0.21518000  0.40672000  1
  C  C886  1  0.24075000  0.66722000  0.76468000  1
  C  C887  1  0.81240000  0.09210000  0.19010000  1
  N  N888  1  0.58592000  0.29639000  0.41177000  1
  N  N889  1  0.55690000  0.39794000  0.38848000  1
  N  N890  1  0.48134000  0.42198000  0.42094000  1
  N  N891  1  0.81534000  0.43759000  0.08593000  1
  N  N892  1  0.30420000  0.59450000  0.56170000  1
  N  N893  1  0.75293000  0.08593000  0.06241000  1
  N  N894  1  0.25937000  0.61770000  0.53018000  1
  N  N895  1  0.26643000  0.92960000  0.49734000  1
  N  N896  1  0.31998000  0.54384000  0.43940000  1
  N  N897  1  0.33886000  0.06241000  0.41407000  1
  N  N898  1  0.62293000  0.46982000  0.11770000  1
  N  N899  1  0.30397000  0.50266000  0.42960000  1
  N  N900  1  0.00231000  0.91177000  0.70361000  1
  N  N901  1  0.24062000  0.93940000  0.45616000  1
  N  N902  1  0.69337000  0.57040000  0.00266000  1
  N  N903  1  0.60130000  0.43830000  0.09450000  1
  N  N904  1  0.76377000  0.00266000  0.92960000  1
  N  N905  1  0.63618000  0.56060000  0.04384000  1
  N  N906  1  0.09772000  0.92094000  0.57802000  1
  N  N907  1  0.09873000  0.58593000  0.56241000  1
  N  N908  1  0.05462000  0.88848000  0.60206000  1
  N  N909  1  0.69678000  0.04384000  0.93940000  1
  N  N910  1  0.59275000  0.11770000  0.03018000  1
  N  N911  1  0.70592000  0.79639000  0.91177000  1
  N  N912  1  0.53960000  0.09450000  0.06170000  1
  N  N913  1  0.67574000  0.92198000  0.92094000  1
  N  N914  1  0.21045000  0.03018000  0.38230000  1
  N  N915  1  0.38231000  0.41177000  0.20361000  1
  N  N916  1  0.45484000  0.38848000  0.10206000  1
  N  N917  1  0.65668000  0.89794000  0.88848000  1
  N  N918  1  0.13410000  0.06170000  0.40550000  1
  N  N919  1  0.59668000  0.57906000  0.92198000  1
  N  N920  1  0.40332000  0.42094000  0.07802000  1
  N  N921  1  0.86590000  0.93830000  0.59450000  1
  N  N922  1  0.34332000  0.10206000  0.11152000  1
  N  N923  1  0.54516000  0.61152000  0.89794000  1
  N  N924  1  0.61769000  0.58823000  0.79639000  1
  N  N925  1  0.78955000  0.96982000  0.61770000  1
  N  N926  1  0.32426000  0.07802000  0.07906000  1
  N  N927  1  0.46040000  0.90550000  0.93830000  1
  N  N928  1  0.29408000  0.20361000  0.08823000  1
  N  N929  1  0.40725000  0.88230000  0.96982000  1
  N  N930  1  0.30322000  0.95616000  0.06060000  1
  N  N931  1  0.94538000  0.11152000  0.39794000  1
  N  N932  1  0.90127000  0.41407000  0.43759000  1
  N  N933  1  0.90228000  0.07906000  0.42198000  1
  N  N934  1  0.36382000  0.43940000  0.95616000  1
  N  N935  1  0.23623000  0.99734000  0.07040000  1
  N  N936  1  0.39870000  0.56170000  0.90550000  1
  N  N937  1  0.30663000  0.42960000  0.99734000  1
  N  N938  1  0.75938000  0.06060000  0.54384000  1
  N  N939  1  0.99769000  0.08823000  0.29639000  1
  N  N940  1  0.69603000  0.49734000  0.57040000  1
  N  N941  1  0.37707000  0.53018000  0.88230000  1
  N  N942  1  0.66114000  0.93759000  0.58593000  1
  N  N943  1  0.68002000  0.45616000  0.56060000  1
  N  N944  1  0.73357000  0.07040000  0.50266000  1
  N  N945  1  0.74063000  0.38230000  0.46982000  1
  N  N946  1  0.24707000  0.91407000  0.93759000  1
  N  N947  1  0.69580000  0.40550000  0.43830000  1
  N  N948  1  0.18466000  0.56241000  0.91407000  1
  N  N949  1  0.51866000  0.57802000  0.57906000  1
  N  N950  1  0.44310000  0.60206000  0.61152000  1
  N  N951  1  0.41408000  0.70361000  0.58823000  1
  O  O952  1  0.45306000  0.62395000  0.52867000  1
  O  O953  1  0.28576000  0.65689000  0.64093000  1
  O  O954  1  0.27230000  0.89173000  0.58103000  1
  O  O955  1  0.28680000  0.68206000  0.54828000  1
  O  O956  1  0.70296000  0.53123000  0.12803000  1
  O  O957  1  0.79300000  0.51990000  0.03098000  1
  O  O958  1  0.48986000  0.42989000  0.33359000  1
  O  O959  1  0.43842000  0.51567000  0.38091000  1
  O  O960  1  0.34388000  0.98010000  0.46902000  1
  O  O961  1  0.27226000  0.53316000  0.54036000  1
  O  O962  1  0.81290000  0.03098000  0.98010000  1
  O  O963  1  0.17655000  0.83359000  0.57011000  1
  O  O964  1  0.85333000  0.91897000  0.89173000  1
  O  O965  1  0.36222000  0.96877000  0.37197000  1
  O  O966  1  0.69458000  0.45964000  0.03316000  1
  O  O967  1  0.33597000  0.41897000  0.39173000  1
  O  O968  1  0.55735000  0.35907000  0.15689000  1
  O  O969  1  0.53114000  0.45172000  0.18206000  1
  O  O970  1  0.73419000  0.12803000  0.96877000  1
  O  O971  1  0.65422000  0.03316000  0.04036000  1
  O  O972  1  0.18067000  0.88091000  0.48433000  1
  O  O973  1  0.74506000  0.60827000  0.91897000  1
  O  O974  1  0.17602000  0.53098000  0.48010000  1
  O  O975  1  0.18738000  0.04036000  0.46684000  1
  O  O976  1  0.16901000  0.62803000  0.46877000  1
  O  O977  1  0.98173000  0.97133000  0.62395000  1
  O  O978  1  0.92669000  0.85907000  0.65689000  1
  O  O979  1  0.74666000  0.92989000  0.83359000  1
  O  O980  1  0.60568000  0.87605000  0.97133000  1
  O  O981  1  0.54591000  0.61909000  0.01567000  1
  O  O982  1  0.41642000  0.15689000  0.14093000  1
  O  O983  1  0.42299000  0.47133000  0.12395000  1
  O  O984  1  0.66500000  0.01567000  0.88091000  1
  O  O985  1  0.48286000  0.18206000  0.04828000  1
  O  O986  1  0.83508000  0.95172000  0.68206000  1
  O  O987  1  0.58025000  0.66641000  0.92989000  1
  O  O988  1  0.41975000  0.33359000  0.07011000  1
  O  O989  1  0.16492000  0.04828000  0.31794000  1
  O  O990  1  0.51714000  0.81794000  0.95172000  1
  O  O991  1  0.33500000  0.98433000  0.11909000  1
  O  O992  1  0.57701000  0.52867000  0.87605000  1
  O  O993  1  0.58358000  0.84311000  0.85907000  1
  O  O994  1  0.45409000  0.38091000  0.98433000  1
  O  O995  1  0.39432000  0.12395000  0.02867000  1
  O  O996  1  0.25334000  0.07011000  0.16641000  1
  O  O997  1  0.07331000  0.14093000  0.34311000  1
  O  O998  1  0.01827000  0.02867000  0.37605000  1
  O  O999  1  0.83099000  0.37197000  0.53123000  1
  O  O1000  1  0.81262000  0.95964000  0.53316000  1
  O  O1001  1  0.82398000  0.46902000  0.51990000  1
  O  O1002  1  0.25494000  0.39173000  0.08103000  1
  O  O1003  1  0.81933000  0.11909000  0.51567000  1
  O  O1004  1  0.34578000  0.96684000  0.95964000  1
  O  O1005  1  0.26581000  0.87197000  0.03123000  1
  O  O1006  1  0.46886000  0.54828000  0.81794000  1
  O  O1007  1  0.44265000  0.64093000  0.84311000  1
  O  O1008  1  0.66403000  0.58103000  0.60827000  1
  O  O1009  1  0.30542000  0.54036000  0.96684000  1
  O  O1010  1  0.63778000  0.03123000  0.62803000  1
  O  O1011  1  0.14667000  0.08103000  0.10827000  1
  O  O1012  1  0.82345000  0.16641000  0.42989000  1
  O  O1013  1  0.18710000  0.96902000  0.01990000  1
  O  O1014  1  0.72774000  0.46684000  0.45964000  1
  O  O1015  1  0.65612000  0.01990000  0.53098000  1
  O  O1016  1  0.56158000  0.48433000  0.61909000  1
  O  O1017  1  0.51014000  0.57011000  0.66641000  1
  O  O1018  1  0.20700000  0.48010000  0.96902000  1
  O  O1019  1  0.29704000  0.46877000  0.87197000  1
  O  O1020  1  0.71320000  0.31794000  0.45172000  1
  O  O1021  1  0.72770000  0.10827000  0.41897000  1
  O  O1022  1  0.71424000  0.34311000  0.35907000  1
  O  O1023  1  0.54694000  0.37605000  0.47133000  1
