# generated using pymatgen
data_DyH20C28(NO4)2
_symmetry_space_group_name_H-M   'P 1'
_cell_length_a   12.37430000
_cell_length_b   14.58420000
_cell_length_c   21.94350000
_cell_angle_alpha   90.00000000
_cell_angle_beta   104.82100000
_cell_angle_gamma   90.00000000
_symmetry_Int_Tables_number   1
_chemical_formula_structural   DyH20C28(NO4)2
_chemical_formula_sum   'Dy4 H80 C112 N8 O32'
_cell_volume   3828.37270686
_cell_formula_units_Z   4
loop_
 _symmetry_equiv_pos_site_id
 _symmetry_equiv_pos_as_xyz
  1  'x, y, z'
loop_
 _atom_site_type_symbol
 _atom_site_label
 _atom_site_symmetry_multiplicity
 _atom_site_fract_x
 _atom_site_fract_y
 _atom_site_fract_z
 _atom_site_occupancy
  Dy  Dy0  1  0.06649000  0.38594000  0.39647000  1
  Dy  Dy1  1  0.06649000  0.61406000  0.89647000  1
  Dy  Dy2  1  0.93351000  0.38594000  0.10353000  1
  Dy  Dy3  1  0.93351000  0.61406000  0.60353000  1
  H  H4  1  0.00390000  0.05710000  0.10130000  1
  H  H5  1  0.00390000  0.94290000  0.60130000  1
  H  H6  1  0.02350000  0.09400000  0.92850000  1
  H  H7  1  0.02350000  0.90600000  0.42850000  1
  H  H8  1  0.06870000  0.29650000  0.93670000  1
  H  H9  1  0.06870000  0.70350000  0.43670000  1
  H  H10  1  0.09780000  0.35530000  0.84390000  1
  H  H11  1  0.09780000  0.64470000  0.34390000  1
  H  H12  1  0.11850000  0.20470000  0.02470000  1
  H  H13  1  0.11850000  0.79530000  0.52470000  1
  H  H14  1  0.14750000  0.41730000  0.76760000  1
  H  H15  1  0.14750000  0.58270000  0.26760000  1
  H  H16  1  0.16130000  0.44730000  0.66780000  1
  H  H17  1  0.16130000  0.55270000  0.16780000  1
  H  H18  1  0.23560000  0.42470000  0.58360000  1
  H  H19  1  0.23560000  0.57530000  0.08360000  1
  H  H20  1  0.24940000  0.18360000  0.05190000  1
  H  H21  1  0.24940000  0.81640000  0.55190000  1
  H  H22  1  0.26990000  0.12960000  0.53610000  1
  H  H23  1  0.26990000  0.87040000  0.03610000  1
  H  H24  1  0.27970000  0.32280000  0.57700000  1
  H  H25  1  0.27970000  0.67720000  0.07700000  1
  H  H26  1  0.29780000  0.02590000  0.06560000  1
  H  H27  1  0.29780000  0.97410000  0.56560000  1
  H  H28  1  0.35560000  0.16020000  0.97000000  1
  H  H29  1  0.35560000  0.83980000  0.47000000  1
  H  H30  1  0.37280000  0.21470000  0.78040000  1
  H  H31  1  0.37280000  0.78530000  0.28040000  1
  H  H32  1  0.38820000  0.21110000  0.87780000  1
  H  H33  1  0.38820000  0.78890000  0.37780000  1
  H  H34  1  0.38950000  0.25440000  0.68070000  1
  H  H35  1  0.38950000  0.74560000  0.18070000  1
  H  H36  1  0.40410000  0.41410000  0.97360000  1
  H  H37  1  0.40410000  0.58590000  0.47360000  1
  H  H38  1  0.41060000  0.43490000  0.32090000  1
  H  H39  1  0.41060000  0.56510000  0.82090000  1
  H  H40  1  0.42220000  0.49810000  0.68240000  1
  H  H41  1  0.42220000  0.50190000  0.18240000  1
  H  H42  1  0.42950000  0.34420000  0.53090000  1
  H  H43  1  0.42950000  0.65580000  0.03090000  1
  H  H44  1  0.57050000  0.34420000  0.96910000  1
  H  H45  1  0.57050000  0.65580000  0.46910000  1
  H  H46  1  0.57780000  0.49810000  0.81760000  1
  H  H47  1  0.57780000  0.50190000  0.31760000  1
  H  H48  1  0.58940000  0.43490000  0.17910000  1
  H  H49  1  0.58940000  0.56510000  0.67910000  1
  H  H50  1  0.59590000  0.41410000  0.52640000  1
  H  H51  1  0.59590000  0.58590000  0.02640000  1
  H  H52  1  0.61050000  0.25440000  0.81930000  1
  H  H53  1  0.61050000  0.74560000  0.31930000  1
  H  H54  1  0.61180000  0.21110000  0.62220000  1
  H  H55  1  0.61180000  0.78890000  0.12220000  1
  H  H56  1  0.62720000  0.21470000  0.71960000  1
  H  H57  1  0.62720000  0.78530000  0.21960000  1
  H  H58  1  0.64440000  0.16020000  0.53000000  1
  H  H59  1  0.64440000  0.83980000  0.03000000  1
  H  H60  1  0.70220000  0.02590000  0.43440000  1
  H  H61  1  0.70220000  0.97410000  0.93440000  1
  H  H62  1  0.72030000  0.32280000  0.92300000  1
  H  H63  1  0.72030000  0.67720000  0.42300000  1
  H  H64  1  0.73010000  0.12960000  0.96390000  1
  H  H65  1  0.73010000  0.87040000  0.46390000  1
  H  H66  1  0.75060000  0.18360000  0.44810000  1
  H  H67  1  0.75060000  0.81640000  0.94810000  1
  H  H68  1  0.76440000  0.42470000  0.91640000  1
  H  H69  1  0.76440000  0.57530000  0.41640000  1
  H  H70  1  0.83870000  0.44730000  0.83220000  1
  H  H71  1  0.83870000  0.55270000  0.33220000  1
  H  H72  1  0.85250000  0.41730000  0.73240000  1
  H  H73  1  0.85250000  0.58270000  0.23240000  1
  H  H74  1  0.88150000  0.20470000  0.47530000  1
  H  H75  1  0.88150000  0.79530000  0.97530000  1
  H  H76  1  0.90220000  0.35530000  0.65610000  1
  H  H77  1  0.90220000  0.64470000  0.15610000  1
  H  H78  1  0.93130000  0.29650000  0.56330000  1
  H  H79  1  0.93130000  0.70350000  0.06330000  1
  H  H80  1  0.97650000  0.09400000  0.57150000  1
  H  H81  1  0.97650000  0.90600000  0.07150000  1
  H  H82  1  0.99610000  0.05710000  0.39870000  1
  H  H83  1  0.99610000  0.94290000  0.89870000  1
  C  C84  1  0.00000000  0.33500000  0.25000000  1
  C  C85  1  0.00000000  0.44140000  0.25000000  1
  C  C86  1  0.00000000  0.55860000  0.75000000  1
  C  C87  1  0.00000000  0.66500000  0.75000000  1
  C  C88  1  0.01180000  0.45800000  0.52223000  1
  C  C89  1  0.01180000  0.54200000  0.02223000  1
  C  C90  1  0.05760000  0.04080000  0.43279000  1
  C  C91  1  0.05760000  0.95920000  0.93279000  1
  C  C92  1  0.07410000  0.04870000  0.95026000  1
  C  C93  1  0.07410000  0.95130000  0.45026000  1
  C  C94  1  0.11030000  0.20640000  0.44443000  1
  C  C95  1  0.11030000  0.79360000  0.94443000  1
  C  C96  1  0.12920000  0.10860000  0.46404000  1
  C  C97  1  0.12920000  0.89140000  0.96404000  1
  C  C98  1  0.13330000  0.27920000  0.92366000  1
  C  C99  1  0.13330000  0.72080000  0.42366000  1
  C  C100  1  0.14970000  0.31310000  0.86836000  1
  C  C101  1  0.14970000  0.68690000  0.36836000  1
  C  C102  1  0.16310000  0.07470000  0.99904000  1
  C  C103  1  0.16310000  0.92530000  0.49904000  1
  C  C104  1  0.18480000  0.17660000  0.01482000  1
  C  C105  1  0.18480000  0.82340000  0.51482000  1
  C  C106  1  0.19730000  0.38210000  0.75050000  1
  C  C107  1  0.19730000  0.61790000  0.25050000  1
  C  C108  1  0.20720000  0.40130000  0.69203000  1
  C  C109  1  0.20720000  0.59870000  0.19203000  1
  C  C110  1  0.22010000  0.08400000  0.51416000  1
  C  C111  1  0.22010000  0.91600000  0.01416000  1
  C  C112  1  0.23670000  0.00850000  0.03169000  1
  C  C113  1  0.23670000  0.99150000  0.53169000  1
  C  C114  1  0.24280000  0.28540000  0.84807000  1
  C  C115  1  0.24280000  0.71460000  0.34807000  1
  C  C116  1  0.25710000  0.31370000  0.78546000  1
  C  C117  1  0.25710000  0.68630000  0.28546000  1
  C  C118  1  0.28220000  0.45720000  0.39975000  1
  C  C119  1  0.28220000  0.54280000  0.89975000  1
  C  C120  1  0.29280000  0.37880000  0.60340000  1
  C  C121  1  0.29280000  0.62120000  0.10340000  1
  C  C122  1  0.30210000  0.19850000  0.94289000  1
  C  C123  1  0.30210000  0.80150000  0.44289000  1
  C  C124  1  0.32150000  0.22840000  0.88872000  1
  C  C125  1  0.32150000  0.77160000  0.38872000  1
  C  C126  1  0.33030000  0.26410000  0.75820000  1
  C  C127  1  0.33030000  0.73590000  0.25820000  1
  C  C128  1  0.33990000  0.28770000  0.69910000  1
  C  C129  1  0.33990000  0.71230000  0.19910000  1
  C  C130  1  0.39010000  0.49820000  0.89846000  1
  C  C131  1  0.39010000  0.50180000  0.39846000  1
  C  C132  1  0.40690000  0.41610000  0.60580000  1
  C  C133  1  0.40690000  0.58390000  0.10580000  1
  C  C134  1  0.43940000  0.43180000  0.94166000  1
  C  C135  1  0.43940000  0.56820000  0.44166000  1
  C  C136  1  0.44370000  0.47900000  0.35188000  1
  C  C137  1  0.44370000  0.52100000  0.85188000  1
  C  C138  1  0.45700000  0.48110000  0.65020000  1
  C  C139  1  0.45700000  0.51890000  0.15020000  1
  C  C140  1  0.46090000  0.39050000  0.56060000  1
  C  C141  1  0.46090000  0.60950000  0.06060000  1
  C  C142  1  0.53910000  0.39050000  0.93940000  1
  C  C143  1  0.53910000  0.60950000  0.43940000  1
  C  C144  1  0.54300000  0.48110000  0.84980000  1
  C  C145  1  0.54300000  0.51890000  0.34980000  1
  C  C146  1  0.55630000  0.47900000  0.14812000  1
  C  C147  1  0.55630000  0.52100000  0.64812000  1
  C  C148  1  0.56060000  0.43180000  0.55834000  1
  C  C149  1  0.56060000  0.56820000  0.05834000  1
  C  C150  1  0.59310000  0.41610000  0.89420000  1
  C  C151  1  0.59310000  0.58390000  0.39420000  1
  C  C152  1  0.60990000  0.49820000  0.60154000  1
  C  C153  1  0.60990000  0.50180000  0.10154000  1
  C  C154  1  0.66010000  0.28770000  0.80090000  1
  C  C155  1  0.66010000  0.71230000  0.30090000  1
  C  C156  1  0.66970000  0.26410000  0.74180000  1
  C  C157  1  0.66970000  0.73590000  0.24180000  1
  C  C158  1  0.67850000  0.22840000  0.61128000  1
  C  C159  1  0.67850000  0.77160000  0.11128000  1
  C  C160  1  0.69790000  0.19850000  0.55711000  1
  C  C161  1  0.69790000  0.80150000  0.05711000  1
  C  C162  1  0.70720000  0.37880000  0.89660000  1
  C  C163  1  0.70720000  0.62120000  0.39660000  1
  C  C164  1  0.71780000  0.45720000  0.10025000  1
  C  C165  1  0.71780000  0.54280000  0.60025000  1
  C  C166  1  0.74290000  0.31370000  0.71454000  1
  C  C167  1  0.74290000  0.68630000  0.21454000  1
  C  C168  1  0.75720000  0.28540000  0.65193000  1
  C  C169  1  0.75720000  0.71460000  0.15193000  1
  C  C170  1  0.76330000  0.00850000  0.46831000  1
  C  C171  1  0.76330000  0.99150000  0.96831000  1
  C  C172  1  0.77990000  0.08400000  0.98584000  1
  C  C173  1  0.77990000  0.91600000  0.48584000  1
  C  C174  1  0.79280000  0.40130000  0.80797000  1
  C  C175  1  0.79280000  0.59870000  0.30797000  1
  C  C176  1  0.80270000  0.38210000  0.74950000  1
  C  C177  1  0.80270000  0.61790000  0.24950000  1
  C  C178  1  0.81520000  0.17660000  0.48518000  1
  C  C179  1  0.81520000  0.82340000  0.98518000  1
  C  C180  1  0.83690000  0.07470000  0.50096000  1
  C  C181  1  0.83690000  0.92530000  0.00096000  1
  C  C182  1  0.85030000  0.31310000  0.63164000  1
  C  C183  1  0.85030000  0.68690000  0.13164000  1
  C  C184  1  0.86670000  0.27920000  0.57634000  1
  C  C185  1  0.86670000  0.72080000  0.07634000  1
  C  C186  1  0.87080000  0.10860000  0.03596000  1
  C  C187  1  0.87080000  0.89140000  0.53596000  1
  C  C188  1  0.88970000  0.20640000  0.05557000  1
  C  C189  1  0.88970000  0.79360000  0.55557000  1
  C  C190  1  0.92590000  0.04870000  0.54974000  1
  C  C191  1  0.92590000  0.95130000  0.04974000  1
  C  C192  1  0.94240000  0.04080000  0.06721000  1
  C  C193  1  0.94240000  0.95920000  0.56721000  1
  C  C194  1  0.98820000  0.45800000  0.97777000  1
  C  C195  1  0.98820000  0.54200000  0.47777000  1
  N  N196  1  0.20810000  0.22170000  0.95937000  1
  N  N197  1  0.20810000  0.77830000  0.45937000  1
  N  N198  1  0.28060000  0.35630000  0.66761000  1
  N  N199  1  0.28060000  0.64370000  0.16761000  1
  N  N200  1  0.71940000  0.35630000  0.83239000  1
  N  N201  1  0.71940000  0.64370000  0.33239000  1
  N  N202  1  0.79190000  0.22170000  0.54063000  1
  N  N203  1  0.79190000  0.77830000  0.04063000  1
  O  O204  1  0.00570000  0.46704000  0.92415000  1
  O  O205  1  0.00570000  0.53296000  0.42415000  1
  O  O206  1  0.01160000  0.23104000  0.41705000  1
  O  O207  1  0.01160000  0.76896000  0.91705000  1
  O  O208  1  0.02040000  0.47991000  0.30284000  1
  O  O209  1  0.02040000  0.52009000  0.80284000  1
  O  O210  1  0.02770000  0.29698000  0.30278000  1
  O  O211  1  0.02770000  0.70302000  0.80278000  1
  O  O212  1  0.04220000  0.38579000  0.50040000  1
  O  O213  1  0.04220000  0.61421000  0.00040000  1
  O  O214  1  0.19010000  0.26279000  0.45270000  1
  O  O215  1  0.19010000  0.73721000  0.95270000  1
  O  O216  1  0.23620000  0.47642000  0.44423000  1
  O  O217  1  0.23620000  0.52358000  0.94423000  1
  O  O218  1  0.23640000  0.40064000  0.35803000  1
  O  O219  1  0.23640000  0.59936000  0.85803000  1
  O  O220  1  0.76360000  0.40064000  0.14197000  1
  O  O221  1  0.76360000  0.59936000  0.64197000  1
  O  O222  1  0.76380000  0.47642000  0.05577000  1
  O  O223  1  0.76380000  0.52358000  0.55577000  1
  O  O224  1  0.80990000  0.26279000  0.04730000  1
  O  O225  1  0.80990000  0.73721000  0.54730000  1
  O  O226  1  0.95780000  0.38579000  0.99960000  1
  O  O227  1  0.95780000  0.61421000  0.49960000  1
  O  O228  1  0.97230000  0.29698000  0.19722000  1
  O  O229  1  0.97230000  0.70302000  0.69722000  1
  O  O230  1  0.97960000  0.47991000  0.19716000  1
  O  O231  1  0.97960000  0.52009000  0.69716000  1
  O  O232  1  0.98840000  0.23104000  0.08295000  1
  O  O233  1  0.98840000  0.76896000  0.58295000  1
  O  O234  1  0.99430000  0.46704000  0.57585000  1
  O  O235  1  0.99430000  0.53296000  0.07585000  1
