# generated using pymatgen
data_CdH8C12(NO2)2
_symmetry_space_group_name_H-M   'P 1'
_cell_length_a   9.86000000
_cell_length_b   11.65000000
_cell_length_c   13.11300000
_cell_angle_alpha   90.00000000
_cell_angle_beta   90.00000000
_cell_angle_gamma   101.99000000
_symmetry_Int_Tables_number   1
_chemical_formula_structural   CdH8C12(NO2)2
_chemical_formula_sum   'Cd4 H32 C48 N8 O16'
_cell_volume   1473.41606278
_cell_formula_units_Z   4
loop_
 _symmetry_equiv_pos_site_id
 _symmetry_equiv_pos_as_xyz
  1  'x, y, z'
loop_
 _atom_site_type_symbol
 _atom_site_label
 _atom_site_symmetry_multiplicity
 _atom_site_fract_x
 _atom_site_fract_y
 _atom_site_fract_z
 _atom_site_occupancy
  Cd  Cd0  1  0.25672000  0.49402000  0.50469000  1
  Cd  Cd1  1  0.25672000  0.99402000  0.99531000  1
  Cd  Cd2  1  0.74328000  0.00598000  0.00469000  1
  Cd  Cd3  1  0.74328000  0.50598000  0.49531000  1
  H  H4  1  0.02110000  0.10880000  0.13280000  1
  H  H5  1  0.02110000  0.60880000  0.36720000  1
  H  H6  1  0.10650000  0.24300000  0.25840000  1
  H  H7  1  0.10650000  0.74300000  0.24160000  1
  H  H8  1  0.27660000  0.00260000  0.23940000  1
  H  H9  1  0.27660000  0.50260000  0.26060000  1
  H  H10  1  0.28580000  0.23620000  0.82460000  1
  H  H11  1  0.28580000  0.73620000  0.67540000  1
  H  H12  1  0.33680000  0.12450000  0.37750000  1
  H  H13  1  0.33680000  0.62450000  0.12250000  1
  H  H14  1  0.35520000  0.35690000  0.68670000  1
  H  H15  1  0.35520000  0.85690000  0.81330000  1
  H  H16  1  0.40550000  0.25920000  0.04950000  1
  H  H17  1  0.40550000  0.75920000  0.45050000  1
  H  H18  1  0.48720000  0.38730000  0.18270000  1
  H  H19  1  0.48720000  0.88730000  0.31730000  1
  H  H20  1  0.51280000  0.11270000  0.68270000  1
  H  H21  1  0.51280000  0.61270000  0.81730000  1
  H  H22  1  0.59450000  0.24080000  0.54950000  1
  H  H23  1  0.59450000  0.74080000  0.95050000  1
  H  H24  1  0.64480000  0.14310000  0.18670000  1
  H  H25  1  0.64480000  0.64310000  0.31330000  1
  H  H26  1  0.66320000  0.37550000  0.87750000  1
  H  H27  1  0.66320000  0.87550000  0.62250000  1
  H  H28  1  0.71420000  0.26380000  0.32460000  1
  H  H29  1  0.71420000  0.76380000  0.17540000  1
  H  H30  1  0.72340000  0.49740000  0.73940000  1
  H  H31  1  0.72340000  0.99740000  0.76060000  1
  H  H32  1  0.89350000  0.25700000  0.75840000  1
  H  H33  1  0.89350000  0.75700000  0.74160000  1
  H  H34  1  0.97890000  0.39120000  0.63280000  1
  H  H35  1  0.97890000  0.89120000  0.86720000  1
  C  C36  1  0.01170000  0.22260000  0.24590000  1
  C  C37  1  0.01170000  0.72260000  0.25410000  1
  C  C38  1  0.03040000  0.14710000  0.89080000  1
  C  C39  1  0.03040000  0.64710000  0.60920000  1
  C  C40  1  0.03970000  0.35460000  0.66830000  1
  C  C41  1  0.03970000  0.85460000  0.83170000  1
  C  C42  1  0.08070000  0.23120000  0.80470000  1
  C  C43  1  0.08070000  0.73120000  0.69530000  1
  C  C44  1  0.22100000  0.26300000  0.78450000  1
  C  C45  1  0.22100000  0.76300000  0.71550000  1
  C  C46  1  0.26100000  0.33600000  0.70160000  1
  C  C47  1  0.26100000  0.83600000  0.79840000  1
  C  C48  1  0.31520000  0.08150000  0.22840000  1
  C  C49  1  0.31520000  0.58150000  0.27160000  1
  C  C50  1  0.35370000  0.15380000  0.31170000  1
  C  C51  1  0.35370000  0.65380000  0.18830000  1
  C  C52  1  0.39340000  0.23230000  0.11630000  1
  C  C53  1  0.39340000  0.73230000  0.38370000  1
  C  C54  1  0.41840000  0.27120000  0.29600000  1
  C  C55  1  0.41840000  0.77120000  0.20400000  1
  C  C56  1  0.44120000  0.31070000  0.19630000  1
  C  C57  1  0.44120000  0.81070000  0.30370000  1
  C  C58  1  0.46330000  0.35370000  0.38480000  1
  C  C59  1  0.46330000  0.85370000  0.11520000  1
  C  C60  1  0.53670000  0.14630000  0.88480000  1
  C  C61  1  0.53670000  0.64630000  0.61520000  1
  C  C62  1  0.55880000  0.18930000  0.69630000  1
  C  C63  1  0.55880000  0.68930000  0.80370000  1
  C  C64  1  0.58160000  0.22880000  0.79600000  1
  C  C65  1  0.58160000  0.72880000  0.70400000  1
  C  C66  1  0.60660000  0.26770000  0.61630000  1
  C  C67  1  0.60660000  0.76770000  0.88370000  1
  C  C68  1  0.64630000  0.34620000  0.81170000  1
  C  C69  1  0.64630000  0.84620000  0.68830000  1
  C  C70  1  0.68480000  0.41850000  0.72840000  1
  C  C71  1  0.68480000  0.91850000  0.77160000  1
  C  C72  1  0.73900000  0.16400000  0.20160000  1
  C  C73  1  0.73900000  0.66400000  0.29840000  1
  C  C74  1  0.77900000  0.23700000  0.28450000  1
  C  C75  1  0.77900000  0.73700000  0.21550000  1
  C  C76  1  0.91930000  0.26880000  0.30470000  1
  C  C77  1  0.91930000  0.76880000  0.19530000  1
  C  C78  1  0.96030000  0.14540000  0.16830000  1
  C  C79  1  0.96030000  0.64540000  0.33170000  1
  C  C80  1  0.96960000  0.35290000  0.39080000  1
  C  C81  1  0.96960000  0.85290000  0.10920000  1
  C  C82  1  0.98830000  0.27740000  0.74590000  1
  C  C83  1  0.98830000  0.77740000  0.75410000  1
  N  N84  1  0.17460000  0.37870000  0.64230000  1
  N  N85  1  0.17460000  0.87870000  0.85770000  1
  N  N86  1  0.33170000  0.12160000  0.13240000  1
  N  N87  1  0.33170000  0.62160000  0.36760000  1
  N  N88  1  0.66830000  0.37840000  0.63240000  1
  N  N89  1  0.66830000  0.87840000  0.86760000  1
  N  N90  1  0.82540000  0.12130000  0.14230000  1
  N  N91  1  0.82540000  0.62130000  0.35770000  1
  O  O92  1  0.09640000  0.39420000  0.39220000  1
  O  O93  1  0.09640000  0.89420000  0.10780000  1
  O  O94  1  0.11790000  0.12720000  0.95360000  1
  O  O95  1  0.11790000  0.62720000  0.54640000  1
  O  O96  1  0.38080000  0.35270000  0.45620000  1
  O  O97  1  0.38080000  0.85270000  0.04380000  1
  O  O98  1  0.41630000  0.08740000  0.87950000  1
  O  O99  1  0.41630000  0.58740000  0.62050000  1
  O  O100  1  0.58370000  0.41260000  0.37950000  1
  O  O101  1  0.58370000  0.91260000  0.12050000  1
  O  O102  1  0.61920000  0.14730000  0.95620000  1
  O  O103  1  0.61920000  0.64730000  0.54380000  1
  O  O104  1  0.88210000  0.37280000  0.45360000  1
  O  O105  1  0.88210000  0.87280000  0.04640000  1
  O  O106  1  0.90360000  0.10580000  0.89220000  1
  O  O107  1  0.90360000  0.60580000  0.60780000  1
