# generated using pymatgen
data_Cu3H12C30(N5O6)2
_symmetry_space_group_name_H-M   'P 1'
_cell_length_a   28.15270000
_cell_length_b   28.15270000
_cell_length_c   28.60009123
_cell_angle_alpha   119.48412321
_cell_angle_beta   119.48361460
_cell_angle_gamma   90.00000000
_symmetry_Int_Tables_number   1
_chemical_formula_structural   Cu3H12C30(N5O6)2
_chemical_formula_sum   'Cu24 H96 C240 N80 O96'
_cell_volume   16275.35820538
_cell_formula_units_Z   8
loop_
 _symmetry_equiv_pos_site_id
 _symmetry_equiv_pos_as_xyz
  1  'x, y, z'
loop_
 _atom_site_type_symbol
 _atom_site_label
 _atom_site_symmetry_multiplicity
 _atom_site_fract_x
 _atom_site_fract_y
 _atom_site_fract_z
 _atom_site_occupancy
  Cu  Cu0  1  0.76238000  0.03566000  0.72620000  1
  Cu  Cu1  1  0.96434000  0.03618000  0.27380000  1
  Cu  Cu2  1  0.95185000  0.04706000  0.36426000  1
  Cu  Cu3  1  0.68280000  0.04815000  0.63574000  1
  Cu  Cu4  1  0.72477000  0.06960000  0.00000000  1
  Cu  Cu5  1  0.63314000  0.09079000  0.00000000  1
  Cu  Cu6  1  0.30946000  0.23762000  0.27380000  1
  Cu  Cu7  1  0.06960000  0.27523000  1.00000000  1
  Cu  Cu8  1  0.03618000  0.30946000  0.27380000  1
  Cu  Cu9  1  0.41241000  0.31720000  0.36426000  1
  Cu  Cu10  1  0.09079000  0.36686000  0.00000000  1
  Cu  Cu11  1  0.04706000  0.41241000  0.36426000  1
  Cu  Cu12  1  0.95294000  0.58759000  0.63574000  1
  Cu  Cu13  1  0.90921000  0.63314000  0.00000000  1
  Cu  Cu14  1  0.58759000  0.68280000  0.63574000  1
  Cu  Cu15  1  0.96382000  0.69054000  0.72620000  1
  Cu  Cu16  1  0.93040000  0.72477000  1.00000000  1
  Cu  Cu17  1  0.69054000  0.76238000  0.72620000  1
  Cu  Cu18  1  0.36686000  0.90921000  1.00000000  1
  Cu  Cu19  1  0.27523000  0.93040000  0.00000000  1
  Cu  Cu20  1  0.31720000  0.95185000  0.36426000  1
  Cu  Cu21  1  0.04815000  0.95294000  0.63574000  1
  Cu  Cu22  1  0.03566000  0.96382000  0.72620000  1
  Cu  Cu23  1  0.23762000  0.96434000  0.27380000  1
  H  H24  1  0.25390000  0.00440000  0.48400000  1
  H  H25  1  0.62140000  0.00710000  0.16760000  1
  H  H26  1  0.17240000  0.01070000  0.55020000  1
  H  H27  1  0.76350000  0.01720000  0.25920000  1
  H  H28  1  0.13170000  0.01960000  0.34600000  1
  H  H29  1  0.11210000  0.03680000  0.48120000  1
  H  H30  1  0.64600000  0.03910000  0.12480000  1
  H  H31  1  0.80540000  0.05190000  0.16180000  1
  H  H32  1  0.69630000  0.08200000  0.84540000  1
  H  H33  1  0.57070000  0.08290000  0.69780000  1
  H  H34  1  0.47880000  0.08570000  0.12480000  1
  H  H35  1  0.55260000  0.10500000  0.83800000  1
  H  H36  1  0.49250000  0.10990000  0.70380000  1
  H  H37  1  0.35640000  0.10990000  0.16180000  1
  H  H38  1  0.44440000  0.11210000  0.48120000  1
  H  H39  1  0.08290000  0.12710000  0.69780000  1
  H  H40  1  0.32640000  0.13170000  0.34600000  1
  H  H41  1  0.08200000  0.14910000  0.84540000  1
  H  H42  1  0.54620000  0.16050000  0.16760000  1
  H  H43  1  0.53950000  0.17240000  0.55020000  1
  H  H44  1  0.89010000  0.19460000  0.83820000  1
  H  H45  1  0.10990000  0.21130000  0.70380000  1
  H  H46  1  0.01960000  0.21430000  0.34600000  1
  H  H47  1  0.00440000  0.23010000  0.48400000  1
  H  H48  1  0.75800000  0.23650000  0.74080000  1
  H  H49  1  0.85090000  0.23660000  0.15460000  1
  H  H50  1  0.49570000  0.24200000  0.25920000  1
  H  H51  1  0.47960000  0.25390000  0.48400000  1
  H  H52  1  0.71460000  0.26700000  0.16200000  1
  H  H53  1  0.10500000  0.28540000  0.83800000  1
  H  H54  1  0.23660000  0.30370000  0.15460000  1
  H  H55  1  0.21430000  0.32640000  0.34600000  1
  H  H56  1  0.91430000  0.35400000  0.87520000  1
  H  H57  1  0.05190000  0.35640000  0.16180000  1
  H  H58  1  0.03680000  0.36910000  0.48120000  1
  H  H59  1  0.01070000  0.37780000  0.55020000  1
  H  H60  1  0.83950000  0.37860000  0.83240000  1
  H  H61  1  0.87290000  0.38510000  0.30220000  1
  H  H62  1  0.78870000  0.40610000  0.29620000  1
  H  H63  1  0.38510000  0.42930000  0.30220000  1
  H  H64  1  0.36910000  0.44440000  0.48120000  1
  H  H65  1  0.26700000  0.44740000  0.16200000  1
  H  H66  1  0.99290000  0.45380000  0.83240000  1
  H  H67  1  0.62220000  0.46050000  0.44980000  1
  H  H68  1  0.03910000  0.47880000  0.12480000  1
  H  H69  1  0.23010000  0.47960000  0.48400000  1
  H  H70  1  0.59390000  0.49250000  0.70380000  1
  H  H71  1  0.01720000  0.49570000  0.25920000  1
  H  H72  1  0.98280000  0.50430000  0.74080000  1
  H  H73  1  0.40610000  0.50750000  0.29620000  1
  H  H74  1  0.76990000  0.52040000  0.51600000  1
  H  H75  1  0.96090000  0.52120000  0.87520000  1
  H  H76  1  0.37780000  0.53950000  0.55020000  1
  H  H77  1  0.00710000  0.54620000  0.16760000  1
  H  H78  1  0.73300000  0.55260000  0.83800000  1
  H  H79  1  0.63090000  0.55560000  0.51880000  1
  H  H80  1  0.61490000  0.57070000  0.69780000  1
  H  H81  1  0.21130000  0.59390000  0.70380000  1
  H  H82  1  0.12710000  0.61490000  0.69780000  1
  H  H83  1  0.16050000  0.62140000  0.16760000  1
  H  H84  1  0.98930000  0.62220000  0.44980000  1
  H  H85  1  0.96320000  0.63090000  0.51880000  1
  H  H86  1  0.94810000  0.64360000  0.83820000  1
  H  H87  1  0.08570000  0.64600000  0.12480000  1
  H  H88  1  0.78570000  0.67360000  0.65400000  1
  H  H89  1  0.76340000  0.69630000  0.84540000  1
  H  H90  1  0.89500000  0.71460000  0.16200000  1
  H  H91  1  0.28540000  0.73300000  0.83800000  1
  H  H92  1  0.52040000  0.74610000  0.51600000  1
  H  H93  1  0.50430000  0.75800000  0.74080000  1
  H  H94  1  0.14910000  0.76340000  0.84540000  1
  H  H95  1  0.24200000  0.76350000  0.25920000  1
  H  H96  1  0.99560000  0.76990000  0.51600000  1
  H  H97  1  0.98040000  0.78570000  0.65400000  1
  H  H98  1  0.89010000  0.78870000  0.29620000  1
  H  H99  1  0.10990000  0.80540000  0.16180000  1
  H  H100  1  0.46050000  0.82760000  0.44980000  1
  H  H101  1  0.45380000  0.83950000  0.83240000  1
  H  H102  1  0.91800000  0.85090000  0.15460000  1
  H  H103  1  0.67360000  0.86830000  0.65400000  1
  H  H104  1  0.91710000  0.87290000  0.30220000  1
  H  H105  1  0.55560000  0.88790000  0.51880000  1
  H  H106  1  0.64360000  0.89010000  0.83820000  1
  H  H107  1  0.50750000  0.89010000  0.29620000  1
  H  H108  1  0.44740000  0.89500000  0.16200000  1
  H  H109  1  0.52120000  0.91430000  0.87520000  1
  H  H110  1  0.42930000  0.91710000  0.30220000  1
  H  H111  1  0.30370000  0.91800000  0.15460000  1
  H  H112  1  0.19460000  0.94810000  0.83820000  1
  H  H113  1  0.35400000  0.96090000  0.87520000  1
  H  H114  1  0.88790000  0.96320000  0.51880000  1
  H  H115  1  0.86830000  0.98040000  0.65400000  1
  H  H116  1  0.23650000  0.98280000  0.74080000  1
  H  H117  1  0.82760000  0.98930000  0.44980000  1
  H  H118  1  0.37860000  0.99290000  0.83240000  1
  H  H119  1  0.74610000  0.99560000  0.51600000  1
  C  C120  1  0.34530000  0.00670000  0.76860000  1
  C  C121  1  0.77250000  0.00810000  0.62080000  1
  C  C122  1  0.19400000  0.00840000  0.40960000  1
  C  C123  1  0.21850000  0.01020000  0.46600000  1
  C  C124  1  0.29560000  0.01970000  0.68420000  1
  C  C125  1  0.14537000  0.01997000  0.38314000  1
  C  C126  1  0.18790000  0.02140000  0.49600000  1
  C  C127  1  0.69750000  0.02260000  0.19060000  1
  C  C128  1  0.38190000  0.02380000  0.08560000  1
  C  C129  1  0.75300000  0.02390000  0.22720000  1
  C  C130  1  0.25130000  0.02430000  0.59780000  1
  C  C131  1  0.13460000  0.03120000  0.46480000  1
  C  C132  1  0.11630000  0.03250000  0.41200000  1
  C  C133  1  0.79310000  0.03500000  0.21640000  1
  C  C134  1  0.68260000  0.03660000  0.14620000  1
  C  C135  1  0.05840000  0.03880000  0.37980000  1
  C  C136  1  0.40140000  0.03890000  0.74520000  1
  C  C137  1  0.85510000  0.03990000  0.25800000  1
  C  C138  1  0.77820000  0.04560000  0.16940000  1
  C  C139  1  0.72230000  0.04710000  0.13300000  1
  C  C140  1  0.34810000  0.05070000  0.65200000  1
  C  C141  1  0.34100000  0.05840000  0.37980000  1
  C  C142  1  0.70370000  0.06180000  0.08560000  1
  C  C143  1  0.07180000  0.06530000  0.73400000  1
  C  C144  1  0.66870000  0.07180000  0.73400000  1
  C  C145  1  0.44600000  0.07300000  0.71360000  1
  C  C146  1  0.63970000  0.08300000  0.76940000  1
  C  C147  1  0.66010000  0.08540000  0.82420000  1
  C  C148  1  0.58510000  0.08590000  0.73660000  1
  C  C149  1  0.41070000  0.08590000  0.13300000  1
  C  C150  1  0.55190000  0.09300000  0.76020000  1
  C  C151  1  0.62660000  0.09300000  0.84900000  1
  C  C152  1  0.64760000  0.09300000  0.90840000  1
  C  C153  1  0.57370000  0.09830000  0.81980000  1
  C  C154  1  0.46360000  0.10960000  0.14620000  1
  C  C155  1  0.37950000  0.11630000  0.41200000  1
  C  C156  1  0.39120000  0.12380000  0.16940000  1
  C  C157  1  0.08300000  0.12970000  0.76940000  1
  C  C158  1  0.43360000  0.13460000  0.46480000  1
  C  C159  1  0.78190000  0.14490000  0.74200000  1
  C  C160  1  0.36317000  0.14537000  0.38314000  1
  C  C161  1  0.08590000  0.15150000  0.73660000  1
  C  C162  1  0.99190000  0.15170000  0.37920000  1
  C  C163  1  0.08540000  0.16410000  0.82420000  1
  C  C164  1  0.49310000  0.16800000  0.19060000  1
  C  C165  1  0.42330000  0.18140000  0.21640000  1
  C  C166  1  0.73920000  0.18460000  0.09160000  1
  C  C167  1  0.47460000  0.18790000  0.49600000  1
  C  C168  1  0.40120000  0.19400000  0.40960000  1
  C  C169  1  0.47420000  0.20330000  0.22720000  1
  C  C170  1  0.81860000  0.20690000  0.78360000  1
  C  C171  1  0.09300000  0.20830000  0.76020000  1
  C  C172  1  0.00840000  0.21560000  0.40960000  1
  C  C173  1  0.40290000  0.21810000  0.25800000  1
  C  C174  1  0.45580000  0.21850000  0.46600000  1
  C  C175  1  0.87620000  0.22180000  0.83060000  1
  C  C176  1  0.09300000  0.22240000  0.84900000  1
  C  C177  1  0.38730000  0.22750000  0.37920000  1
  C  C178  1  0.01997000  0.23777000  0.38314000  1
  C  C179  1  0.57670000  0.23810000  0.23140000  1
  C  C180  1  0.77760000  0.24400000  0.15100000  1
  C  C181  1  0.09830000  0.24610000  0.81980000  1
  C  C182  1  0.79670000  0.24700000  0.77280000  1
  C  C183  1  0.01020000  0.24750000  0.46600000  1
  C  C184  1  0.57350000  0.25130000  0.59780000  1
  C  C185  1  0.09300000  0.26080000  0.90840000  1
  C  C186  1  0.83590000  0.26120000  0.17580000  1
  C  C187  1  0.07300000  0.26760000  0.71360000  1
  C  C188  1  0.91410000  0.27770000  0.86700000  1
  C  C189  1  0.75390000  0.27850000  0.18020000  1
  C  C190  1  0.65620000  0.29370000  0.25480000  1
  C  C191  1  0.66450000  0.29560000  0.68420000  1
  C  C192  1  0.03250000  0.29570000  0.41200000  1
  C  C193  1  0.97620000  0.29630000  0.91440000  1
  C  C194  1  0.83200000  0.30250000  0.80940000  1
  C  C195  1  0.05070000  0.30390000  0.65200000  1
  C  C196  1  0.02140000  0.30810000  0.49600000  1
  C  C197  1  0.87030000  0.31360000  0.23060000  1
  C  C198  1  0.89040000  0.31740000  0.85380000  1
  C  C199  1  0.03880000  0.32140000  0.37980000  1
  C  C200  1  0.03120000  0.33020000  0.46480000  1
  C  C201  1  0.33780000  0.33130000  0.26600000  1
  C  C202  1  0.79170000  0.33280000  0.23980000  1
  C  C203  1  0.61140000  0.33550000  0.31580000  1
  C  C204  1  0.93470000  0.33780000  0.26600000  1
  C  C205  1  0.26120000  0.33990000  0.17580000  1
  C  C206  1  0.32140000  0.34100000  0.37980000  1
  C  C207  1  0.03890000  0.34380000  0.74520000  1
  C  C208  1  0.76190000  0.34530000  0.76860000  1
  C  C209  1  0.02430000  0.34650000  0.59780000  1
  C  C210  1  0.60130000  0.34810000  0.65200000  1
  C  C211  1  0.84850000  0.34930000  0.26340000  1
  C  C212  1  0.18460000  0.35240000  0.09160000  1
  C  C213  1  0.73240000  0.35940000  0.28640000  1
  C  C214  1  0.31360000  0.36030000  0.23060000  1
  C  C215  1  0.23777000  0.36317000  0.38314000  1
  C  C216  1  0.24400000  0.37340000  0.15100000  1
  C  C217  1  0.29570000  0.37950000  0.41200000  1
  C  C218  1  0.06180000  0.38190000  0.08560000  1
  C  C219  1  0.15170000  0.38730000  0.37920000  1
  C  C220  1  0.01970000  0.38860000  0.68420000  1
  C  C221  1  0.04560000  0.39120000  0.16940000  1
  C  C222  1  0.69610000  0.39870000  0.34800000  1
  C  C223  1  0.21560000  0.40120000  0.40960000  1
  C  C224  1  0.70630000  0.40140000  0.74520000  1
  C  C225  1  0.03990000  0.40290000  0.25800000  1
  C  C226  1  0.04710000  0.41070000  0.13300000  1
  C  C227  1  0.34930000  0.41490000  0.26340000  1
  C  C228  1  0.03500000  0.42330000  0.21640000  1
  C  C229  1  0.00670000  0.42330000  0.76860000  1
  C  C230  1  0.27850000  0.42630000  0.18020000  1
  C  C231  1  0.65350000  0.42650000  0.40220000  1
  C  C232  1  0.33020000  0.43360000  0.46480000  1
  C  C233  1  0.64060000  0.44600000  0.71360000  1
  C  C234  1  0.33280000  0.44810000  0.23980000  1
  C  C235  1  0.24750000  0.45580000  0.46600000  1
  C  C236  1  0.03660000  0.46360000  0.14620000  1
  C  C237  1  0.02390000  0.47420000  0.22720000  1
  C  C238  1  0.30810000  0.47460000  0.49600000  1
  C  C239  1  0.02260000  0.49310000  0.19060000  1
  C  C240  1  0.97740000  0.50690000  0.80940000  1
  C  C241  1  0.69190000  0.52540000  0.50400000  1
  C  C242  1  0.97610000  0.52580000  0.77280000  1
  C  C243  1  0.96340000  0.53640000  0.85380000  1
  C  C244  1  0.75250000  0.54420000  0.53400000  1
  C  C245  1  0.66720000  0.55190000  0.76020000  1
  C  C246  1  0.35940000  0.55400000  0.28640000  1
  C  C247  1  0.66980000  0.56640000  0.53520000  1
  C  C248  1  0.34650000  0.57350000  0.59780000  1
  C  C249  1  0.72150000  0.57370000  0.81980000  1
  C  C250  1  0.99330000  0.57670000  0.23140000  1
  C  C251  1  0.96500000  0.57670000  0.78360000  1
  C  C252  1  0.65070000  0.58510000  0.73660000  1
  C  C253  1  0.95290000  0.58930000  0.86700000  1
  C  C254  1  0.96010000  0.59710000  0.74200000  1
  C  C255  1  0.29370000  0.59860000  0.25480000  1
  C  C256  1  0.78440000  0.59880000  0.59040000  1
  C  C257  1  0.30390000  0.60130000  0.65200000  1
  C  C258  1  0.95440000  0.60880000  0.83060000  1
  C  C259  1  0.98030000  0.61140000  0.31580000  1
  C  C260  1  0.84830000  0.61270000  0.62080000  1
  C  C261  1  0.93820000  0.61810000  0.91440000  1
  C  C262  1  0.70430000  0.62050000  0.58800000  1
  C  C263  1  0.75600000  0.62660000  0.84900000  1
  C  C264  1  0.76223000  0.63683000  0.61686000  1
  C  C265  1  0.68640000  0.63970000  0.76940000  1
  C  C266  1  0.26760000  0.64060000  0.71360000  1
  C  C267  1  0.81540000  0.64760000  0.90840000  1
  C  C268  1  0.15150000  0.65070000  0.73660000  1
  C  C269  1  0.39870000  0.65190000  0.34800000  1
  C  C270  1  0.97570000  0.65350000  0.40220000  1
  C  C271  1  0.23810000  0.65470000  0.23140000  1
  C  C272  1  0.96110000  0.65620000  0.25480000  1
  C  C273  1  0.67860000  0.65900000  0.62020000  1
  C  C274  1  0.73880000  0.66010000  0.82420000  1
  C  C275  1  0.06530000  0.66220000  0.73400000  1
  C  C276  1  0.38860000  0.66450000  0.68420000  1
  C  C277  1  0.20830000  0.66720000  0.76020000  1
  C  C278  1  0.66220000  0.66870000  0.73400000  1
  C  C279  1  0.96880000  0.66980000  0.53520000  1
  C  C280  1  0.96120000  0.67860000  0.62020000  1
  C  C281  1  0.10960000  0.68260000  0.14620000  1
  C  C282  1  0.12970000  0.68640000  0.76940000  1
  C  C283  1  0.97860000  0.69190000  0.50400000  1
  C  C284  1  0.94930000  0.69610000  0.34800000  1
  C  C285  1  0.16800000  0.69750000  0.19060000  1
  C  C286  1  0.02380000  0.70370000  0.08560000  1
  C  C287  1  0.96750000  0.70430000  0.58800000  1
  C  C288  1  0.33550000  0.70440000  0.31580000  1
  C  C289  1  0.34380000  0.70630000  0.74520000  1
  C  C290  1  0.24610000  0.72150000  0.81980000  1
  C  C291  1  0.08590000  0.72230000  0.13300000  1
  C  C292  1  0.92700000  0.73240000  0.28640000  1
  C  C293  1  0.16410000  0.73880000  0.82420000  1
  C  C294  1  0.90700000  0.73920000  0.09160000  1
  C  C295  1  0.42650000  0.74870000  0.40220000  1
  C  C296  1  0.98980000  0.75250000  0.53400000  1
  C  C297  1  0.20330000  0.75300000  0.22720000  1
  C  C298  1  0.90170000  0.75390000  0.18020000  1
  C  C299  1  0.22240000  0.75600000  0.84900000  1
  C  C300  1  0.42330000  0.76190000  0.76860000  1
  C  C301  1  0.98003000  0.76223000  0.61686000  1
  C  C302  1  0.61270000  0.77250000  0.62080000  1
  C  C303  1  0.90700000  0.77760000  0.15100000  1
  C  C304  1  0.12380000  0.77820000  0.16940000  1
  C  C305  1  0.54420000  0.78150000  0.53400000  1
  C  C306  1  0.59710000  0.78190000  0.74200000  1
  C  C307  1  0.99160000  0.78440000  0.59040000  1
  C  C308  1  0.90700000  0.79170000  0.23980000  1
  C  C309  1  0.18140000  0.79310000  0.21640000  1
  C  C310  1  0.52580000  0.79670000  0.77280000  1
  C  C311  1  0.59880000  0.80600000  0.59040000  1
  C  C312  1  0.52540000  0.81210000  0.50400000  1
  C  C313  1  0.26080000  0.81540000  0.90840000  1
  C  C314  1  0.57670000  0.81860000  0.78360000  1
  C  C315  1  0.50690000  0.83200000  0.80940000  1
  C  C316  1  0.91460000  0.83590000  0.17580000  1
  C  C317  1  0.00810000  0.84830000  0.62080000  1
  C  C318  1  0.91410000  0.84850000  0.26340000  1
  C  C319  1  0.63683000  0.85463000  0.61686000  1
  C  C320  1  0.21810000  0.85510000  0.25800000  1
  C  C321  1  0.56640000  0.86540000  0.53520000  1
  C  C322  1  0.91700000  0.87030000  0.23060000  1
  C  C323  1  0.60880000  0.87620000  0.83060000  1
  C  C324  1  0.62050000  0.88370000  0.58800000  1
  C  C325  1  0.53640000  0.89040000  0.85380000  1
  C  C326  1  0.42630000  0.90170000  0.18020000  1
  C  C327  1  0.35240000  0.90700000  0.09160000  1
  C  C328  1  0.37340000  0.90700000  0.15100000  1
  C  C329  1  0.44810000  0.90700000  0.23980000  1
  C  C330  1  0.58930000  0.91410000  0.86700000  1
  C  C331  1  0.41490000  0.91410000  0.26340000  1
  C  C332  1  0.33990000  0.91460000  0.17580000  1
  C  C333  1  0.36030000  0.91700000  0.23060000  1
  C  C334  1  0.55400000  0.92700000  0.28640000  1
  C  C335  1  0.33130000  0.92820000  0.26600000  1
  C  C336  1  0.92820000  0.93470000  0.26600000  1
  C  C337  1  0.29630000  0.93820000  0.91440000  1
  C  C338  1  0.65900000  0.94160000  0.62020000  1
  C  C339  1  0.65190000  0.94930000  0.34800000  1
  C  C340  1  0.27770000  0.95290000  0.86700000  1
  C  C341  1  0.22180000  0.95440000  0.83060000  1
  C  C342  1  0.14490000  0.96010000  0.74200000  1
  C  C343  1  0.59860000  0.96110000  0.25480000  1
  C  C344  1  0.94160000  0.96120000  0.62020000  1
  C  C345  1  0.31740000  0.96340000  0.85380000  1
  C  C346  1  0.20690000  0.96500000  0.78360000  1
  C  C347  1  0.88370000  0.96750000  0.58800000  1
  C  C348  1  0.86540000  0.96880000  0.53520000  1
  C  C349  1  0.74870000  0.97570000  0.40220000  1
  C  C350  1  0.24700000  0.97610000  0.77280000  1
  C  C351  1  0.61810000  0.97620000  0.91440000  1
  C  C352  1  0.30250000  0.97740000  0.80940000  1
  C  C353  1  0.81210000  0.97860000  0.50400000  1
  C  C354  1  0.85463000  0.98003000  0.61686000  1
  C  C355  1  0.70440000  0.98030000  0.31580000  1
  C  C356  1  0.78150000  0.98980000  0.53400000  1
  C  C357  1  0.80600000  0.99160000  0.59040000  1
  C  C358  1  0.22750000  0.99190000  0.37920000  1
  C  C359  1  0.65470000  0.99330000  0.23140000  1
  N  N360  1  0.29450000  0.00290000  0.71840000  1
  N  N361  1  0.65440000  0.00740000  0.19420000  1
  N  N362  1  0.24850000  0.01380000  0.63780000  1
  N  N363  1  0.20150000  0.01810000  0.54940000  1
  N  N364  1  0.39820000  0.02630000  0.78060000  1
  N  N365  1  0.34910000  0.03850000  0.69420000  1
  N  N366  1  0.29960000  0.04490000  0.60300000  1
  N  N367  1  0.44880000  0.05740000  0.75380000  1
  N  N368  1  0.39670000  0.07250000  0.66380000  1
  N  N369  1  0.49570000  0.09350000  0.72340000  1
  N  N370  1  0.53980000  0.18680000  0.19420000  1
  N  N371  1  0.53130000  0.20150000  0.54940000  1
  N  N372  1  0.09350000  0.22770000  0.72340000  1
  N  N373  1  0.61760000  0.24570000  0.21940000  1
  N  N374  1  0.62400000  0.24850000  0.63780000  1
  N  N375  1  0.07250000  0.26710000  0.66380000  1
  N  N376  1  0.57610000  0.28450000  0.28160000  1
  N  N377  1  0.71550000  0.29450000  0.71840000  1
  N  N378  1  0.55810000  0.29960000  0.60300000  1
  N  N379  1  0.04490000  0.30340000  0.60300000  1
  N  N380  1  0.69500000  0.30360000  0.24620000  1
  N  N381  1  0.05740000  0.30500000  0.75380000  1
  N  N382  1  0.65490000  0.34430000  0.30580000  1
  N  N383  1  0.03850000  0.34510000  0.69420000  1
  N  N384  1  0.81320000  0.34560000  0.80580000  1
  N  N385  1  0.01810000  0.34790000  0.54940000  1
  N  N386  1  0.65570000  0.34910000  0.69420000  1
  N  N387  1  0.77230000  0.37010000  0.27660000  1
  N  N388  1  0.61070000  0.37600000  0.36220000  1
  N  N389  1  0.02630000  0.38240000  0.78060000  1
  N  N390  1  0.01380000  0.38930000  0.63780000  1
  N  N391  1  0.59130000  0.39670000  0.66380000  1
  N  N392  1  0.75430000  0.39820000  0.78060000  1
  N  N393  1  0.73290000  0.40870000  0.33620000  1
  N  N394  1  0.00290000  0.42390000  0.71840000  1
  N  N395  1  0.69660000  0.44190000  0.39700000  1
  N  N396  1  0.69640000  0.44880000  0.75380000  1
  N  N397  1  0.99260000  0.46020000  0.80580000  1
  N  N398  1  0.65210000  0.46870000  0.45060000  1
  N  N399  1  0.62990000  0.49570000  0.72340000  1
  N  N400  1  0.37010000  0.50430000  0.27660000  1
  N  N401  1  0.34790000  0.53130000  0.54940000  1
  N  N402  1  0.00740000  0.53980000  0.19420000  1
  N  N403  1  0.30360000  0.55120000  0.24620000  1
  N  N404  1  0.30340000  0.55810000  0.60300000  1
  N  N405  1  0.99710000  0.57610000  0.28160000  1
  N  N406  1  0.26710000  0.59130000  0.66380000  1
  N  N407  1  0.24570000  0.60180000  0.21940000  1
  N  N408  1  0.40870000  0.60330000  0.33620000  1
  N  N409  1  0.98620000  0.61070000  0.36220000  1
  N  N410  1  0.97370000  0.61760000  0.21940000  1
  N  N411  1  0.38930000  0.62400000  0.63780000  1
  N  N412  1  0.22770000  0.62990000  0.72340000  1
  N  N413  1  0.34430000  0.65090000  0.30580000  1
  N  N414  1  0.98190000  0.65210000  0.45060000  1
  N  N415  1  0.18680000  0.65440000  0.19420000  1
  N  N416  1  0.96150000  0.65490000  0.30580000  1
  N  N417  1  0.34510000  0.65570000  0.69420000  1
  N  N418  1  0.94260000  0.69500000  0.24620000  1
  N  N419  1  0.30500000  0.69640000  0.75380000  1
  N  N420  1  0.95510000  0.69660000  0.39700000  1
  N  N421  1  0.44190000  0.70040000  0.39700000  1
  N  N422  1  0.28450000  0.70550000  0.28160000  1
  N  N423  1  0.42390000  0.71550000  0.71840000  1
  N  N424  1  0.92750000  0.73290000  0.33620000  1
  N  N425  1  0.37600000  0.75150000  0.36220000  1
  N  N426  1  0.38240000  0.75430000  0.78060000  1
  N  N427  1  0.90650000  0.77230000  0.27660000  1
  N  N428  1  0.46870000  0.79850000  0.45060000  1
  N  N429  1  0.46020000  0.81320000  0.80580000  1
  N  N430  1  0.50430000  0.90650000  0.27660000  1
  N  N431  1  0.60330000  0.92750000  0.33620000  1
  N  N432  1  0.55120000  0.94260000  0.24620000  1
  N  N433  1  0.70040000  0.95510000  0.39700000  1
  N  N434  1  0.65090000  0.96150000  0.30580000  1
  N  N435  1  0.60180000  0.97370000  0.21940000  1
  N  N436  1  0.79850000  0.98190000  0.45060000  1
  N  N437  1  0.75150000  0.98620000  0.36220000  1
  N  N438  1  0.34560000  0.99260000  0.80580000  1
  N  N439  1  0.70550000  0.99710000  0.28160000  1
  O  O440  1  0.79107000  0.00786000  0.67052000  1
  O  O441  1  0.32830000  0.00916000  0.06640000  1
  O  O442  1  0.59457000  0.01017000  0.93494000  1
  O  O443  1  0.72729000  0.02308000  0.59722000  1
  O  O444  1  0.35713000  0.03149000  0.40654000  1
  O  O445  1  0.04090000  0.03437000  0.32660000  1
  O  O446  1  0.06901000  0.03601000  0.68562000  1
  O  O447  1  0.88475000  0.03764000  0.23350000  1
  O  O448  1  0.29223000  0.04090000  0.32660000  1
  O  O449  1  0.87233000  0.04124000  0.30718000  1
  O  O450  1  0.06399000  0.04749000  0.76578000  1
  O  O451  1  0.03149000  0.04941000  0.40654000  1
  O  O452  1  0.73810000  0.05724000  0.06640000  1
  O  O453  1  0.71829000  0.06399000  0.76578000  1
  O  O454  1  0.64961000  0.06901000  0.68562000  1
  O  O455  1  0.65963000  0.07523000  0.06506000  1
  O  O456  1  0.69511000  0.08461000  0.93262000  1
  O  O457  1  0.61817000  0.09988000  0.93054000  1
  O  O458  1  0.80414000  0.11525000  0.76650000  1
  O  O459  1  0.99214000  0.12055000  0.32948000  1
  O  O460  1  0.73406000  0.12767000  0.69282000  1
  O  O461  1  0.97692000  0.13007000  0.40278000  1
  O  O462  1  0.76249000  0.15199000  0.06738000  1
  O  O463  1  0.68763000  0.16934000  0.06946000  1
  O  O464  1  0.34875000  0.19586000  0.23350000  1
  O  O465  1  0.33734000  0.20893000  0.32948000  1
  O  O466  1  0.08461000  0.23751000  0.93262000  1
  O  O467  1  0.99084000  0.26190000  0.93360000  1
  O  O468  1  0.43485000  0.26594000  0.30718000  1
  O  O469  1  0.42586000  0.27271000  0.40278000  1
  O  O470  1  0.29821000  0.28171000  0.23422000  1
  O  O471  1  0.03437000  0.28570000  0.32660000  1
  O  O472  1  0.28570000  0.29223000  0.32660000  1
  O  O473  1  0.95251000  0.29821000  0.23422000  1
  O  O474  1  0.15199000  0.30489000  0.06738000  1
  O  O475  1  0.09988000  0.31237000  0.93054000  1
  O  O476  1  0.05724000  0.32830000  0.06640000  1
  O  O477  1  0.12055000  0.33734000  0.32948000  1
  O  O478  1  0.01017000  0.34037000  0.93494000  1
  O  O479  1  0.03764000  0.34875000  0.23350000  1
  O  O480  1  0.38339000  0.35039000  0.31438000  1
  O  O481  1  0.37505000  0.35713000  0.40654000  1
  O  O482  1  0.04941000  0.37505000  0.40654000  1
  O  O483  1  0.16934000  0.38183000  0.06946000  1
  O  O484  1  0.96399000  0.38339000  0.31438000  1
  O  O485  1  0.07523000  0.40543000  0.06506000  1
  O  O486  1  0.13007000  0.42586000  0.40278000  1
  O  O487  1  0.04124000  0.43485000  0.30718000  1
  O  O488  1  0.95876000  0.56515000  0.69282000  1
  O  O489  1  0.86993000  0.57414000  0.59722000  1
  O  O490  1  0.92477000  0.59457000  0.93494000  1
  O  O491  1  0.03601000  0.61661000  0.68562000  1
  O  O492  1  0.83066000  0.61817000  0.93054000  1
  O  O493  1  0.95059000  0.62495000  0.59346000  1
  O  O494  1  0.62495000  0.64287000  0.59346000  1
  O  O495  1  0.61661000  0.64961000  0.68562000  1
  O  O496  1  0.96236000  0.65125000  0.76650000  1
  O  O497  1  0.98983000  0.65963000  0.06506000  1
  O  O498  1  0.87945000  0.66266000  0.67052000  1
  O  O499  1  0.94276000  0.67170000  0.93360000  1
  O  O500  1  0.90012000  0.68763000  0.06946000  1
  O  O501  1  0.84801000  0.69511000  0.93262000  1
  O  O502  1  0.04749000  0.70179000  0.76578000  1
  O  O503  1  0.71430000  0.70777000  0.67340000  1
  O  O504  1  0.96563000  0.71430000  0.67340000  1
  O  O505  1  0.70179000  0.71829000  0.76578000  1
  O  O506  1  0.57414000  0.72729000  0.59722000  1
  O  O507  1  0.56515000  0.73406000  0.69282000  1
  O  O508  1  0.00916000  0.73810000  0.06640000  1
  O  O509  1  0.91539000  0.76249000  0.06738000  1
  O  O510  1  0.66266000  0.79107000  0.67052000  1
  O  O511  1  0.65125000  0.80414000  0.76650000  1
  O  O512  1  0.31237000  0.83066000  0.93054000  1
  O  O513  1  0.23751000  0.84801000  0.93262000  1
  O  O514  1  0.02308000  0.86993000  0.59722000  1
  O  O515  1  0.26594000  0.87233000  0.30718000  1
  O  O516  1  0.00786000  0.87945000  0.67052000  1
  O  O517  1  0.19586000  0.88475000  0.23350000  1
  O  O518  1  0.38183000  0.90012000  0.06946000  1
  O  O519  1  0.30489000  0.91539000  0.06738000  1
  O  O520  1  0.34037000  0.92477000  0.93494000  1
  O  O521  1  0.35039000  0.93099000  0.31438000  1
  O  O522  1  0.28171000  0.93601000  0.23422000  1
  O  O523  1  0.26190000  0.94276000  0.93360000  1
  O  O524  1  0.96851000  0.95059000  0.59346000  1
  O  O525  1  0.93601000  0.95251000  0.23422000  1
  O  O526  1  0.12767000  0.95876000  0.69282000  1
  O  O527  1  0.70777000  0.95910000  0.67340000  1
  O  O528  1  0.11525000  0.96236000  0.76650000  1
  O  O529  1  0.93099000  0.96399000  0.31438000  1
  O  O530  1  0.95910000  0.96563000  0.67340000  1
  O  O531  1  0.64287000  0.96851000  0.59346000  1
  O  O532  1  0.27271000  0.97692000  0.40278000  1
  O  O533  1  0.40543000  0.98983000  0.06506000  1
  O  O534  1  0.67170000  0.99084000  0.93360000  1
  O  O535  1  0.20893000  0.99214000  0.32948000  1
