# generated using pymatgen
data_Zn4H24C54O13
_symmetry_space_group_name_H-M   'P 1'
_cell_length_a   29.53600000
_cell_length_b   29.53600000
_cell_length_c   41.76000000
_cell_angle_alpha   90.00000000
_cell_angle_beta   90.00000000
_cell_angle_gamma   120.00000000
_symmetry_Int_Tables_number   1
_chemical_formula_structural   Zn4H24C54O13
_chemical_formula_sum   'Zn48 H288 C648 O156'
_cell_volume   31549.64525443
_cell_formula_units_Z   12
loop_
 _symmetry_equiv_pos_site_id
 _symmetry_equiv_pos_as_xyz
  1  'x, y, z'
loop_
 _atom_site_type_symbol
 _atom_site_label
 _atom_site_symmetry_multiplicity
 _atom_site_fract_x
 _atom_site_fract_y
 _atom_site_fract_z
 _atom_site_occupancy
  Zn  Zn0  1  0.99858000  0.32869000  0.70952000  1
  Zn  Zn1  1  0.99858000  0.66989000  0.29048000  1
  Zn  Zn2  1  0.97792000  0.27039000  0.97558000  1
  Zn  Zn3  1  0.97792000  0.70753000  0.02442000  1
  Zn  Zn4  1  0.96575000  0.37000000  0.97482000  1
  Zn  Zn5  1  0.96575000  0.59575000  0.02518000  1
  Zn  Zn6  1  0.96351000  0.26520000  0.64581000  1
  Zn  Zn7  1  0.96351000  0.69831000  0.35419000  1
  Zn  Zn8  1  0.95463000  0.37062000  0.65557000  1
  Zn  Zn9  1  0.95463000  0.58401000  0.34443000  1
  Zn  Zn10  1  0.73480000  0.03649000  0.02086000  1
  Zn  Zn11  1  0.73480000  0.69831000  0.97914000  1
  Zn  Zn12  1  0.72961000  0.02208000  0.69109000  1
  Zn  Zn13  1  0.72961000  0.70753000  0.30891000  1
  Zn  Zn14  1  0.67131000  0.00142000  0.95715000  1
  Zn  Zn15  1  0.67131000  0.66989000  0.04285000  1
  Zn  Zn16  1  0.65119000  0.66894000  0.36807000  1
  Zn  Zn17  1  0.65119000  0.98225000  0.63193000  1
  Zn  Zn18  1  0.63000000  0.03425000  0.69185000  1
  Zn  Zn19  1  0.63000000  0.59575000  0.30815000  1
  Zn  Zn20  1  0.62938000  0.04537000  0.01110000  1
  Zn  Zn21  1  0.62938000  0.58401000  0.98890000  1
  Zn  Zn22  1  0.62473000  0.68993000  0.98149000  1
  Zn  Zn23  1  0.62473000  0.93480000  0.01851000  1
  Zn  Zn24  1  0.61651000  0.69440000  0.30164000  1
  Zn  Zn25  1  0.61651000  0.92211000  0.69836000  1
  Zn  Zn26  1  0.41599000  0.04537000  0.32223000  1
  Zn  Zn27  1  0.41599000  0.37062000  0.67777000  1
  Zn  Zn28  1  0.40425000  0.03425000  0.64149000  1
  Zn  Zn29  1  0.40425000  0.37000000  0.35851000  1
  Zn  Zn30  1  0.33106000  0.34881000  0.29859000  1
  Zn  Zn31  1  0.33106000  0.98225000  0.70141000  1
  Zn  Zn32  1  0.33011000  0.00142000  0.37618000  1
  Zn  Zn33  1  0.33011000  0.32869000  0.62382000  1
  Zn  Zn34  1  0.31007000  0.37527000  0.68518000  1
  Zn  Zn35  1  0.31007000  0.93480000  0.31482000  1
  Zn  Zn36  1  0.30560000  0.38349000  0.36502000  1
  Zn  Zn37  1  0.30560000  0.92211000  0.63498000  1
  Zn  Zn38  1  0.30169000  0.03649000  0.31247000  1
  Zn  Zn39  1  0.30169000  0.26520000  0.68753000  1
  Zn  Zn40  1  0.29247000  0.02208000  0.64225000  1
  Zn  Zn41  1  0.29247000  0.27039000  0.35775000  1
  Zn  Zn42  1  0.07789000  0.38349000  0.96831000  1
  Zn  Zn43  1  0.07789000  0.69440000  0.03169000  1
  Zn  Zn44  1  0.06520000  0.37527000  0.64816000  1
  Zn  Zn45  1  0.06520000  0.68993000  0.35184000  1
  Zn  Zn46  1  0.01775000  0.34881000  0.03474000  1
  Zn  Zn47  1  0.01775000  0.66894000  0.96526000  1
  H  H48  1  0.98970000  0.46000000  0.56937000  1
  H  H49  1  0.98970000  0.52970000  0.43063000  1
  H  H50  1  0.98880000  0.48310000  0.90420000  1
  H  H51  1  0.98880000  0.50570000  0.09580000  1
  H  H52  1  0.96700000  0.20660000  0.76610000  1
  H  H53  1  0.96700000  0.76040000  0.23390000  1
  H  H54  1  0.95900000  0.40990000  0.77600000  1
  H  H55  1  0.95900000  0.54910000  0.22400000  1
  H  H56  1  0.95820000  0.23340000  0.10190000  1
  H  H57  1  0.95820000  0.72480000  0.89810000  1
  H  H58  1  0.95310000  0.17200000  0.93567000  1
  H  H59  1  0.95310000  0.78110000  0.06433000  1
  H  H60  1  0.93630000  0.16190000  0.59827000  1
  H  H61  1  0.93630000  0.77440000  0.40173000  1
  H  H62  1  0.92580000  0.13650000  0.80170000  1
  H  H63  1  0.92580000  0.78930000  0.19830000  1
  H  H64  1  0.92260000  0.45300000  0.80350000  1
  H  H65  1  0.92260000  0.46960000  0.19650000  1
  H  H66  1  0.91700000  0.36560000  0.09743000  1
  H  H67  1  0.91700000  0.55140000  0.90257000  1
  H  H68  1  0.91650000  0.16650000  0.13970000  1
  H  H69  1  0.91650000  0.75000000  0.86030000  1
  H  H70  1  0.91150000  0.45080000  0.97057000  1
  H  H71  1  0.91150000  0.46070000  0.02943000  1
  H  H72  1  0.88390000  0.40010000  0.13513000  1
  H  H73  1  0.88390000  0.48380000  0.86487000  1
  H  H74  1  0.88300000  0.13080000  0.97137000  1
  H  H75  1  0.88300000  0.75220000  0.02863000  1
  H  H76  1  0.87980000  0.13050000  0.03070000  1
  H  H77  1  0.87980000  0.74930000  0.96930000  1
  H  H78  1  0.87840000  0.38320000  0.93277000  1
  H  H79  1  0.87840000  0.49520000  0.06723000  1
  H  H80  1  0.86950000  0.12020000  0.63597000  1
  H  H81  1  0.86950000  0.74930000  0.36403000  1
  H  H82  1  0.86920000  0.11700000  0.69530000  1
  H  H83  1  0.86920000  0.75220000  0.30470000  1
  H  H84  1  0.86670000  0.19590000  0.90010000  1
  H  H85  1  0.86670000  0.67080000  0.09990000  1
  H  H86  1  0.86350000  0.07420000  0.86497000  1
  H  H87  1  0.86350000  0.78930000  0.13503000  1
  H  H88  1  0.84960000  0.19580000  0.57387000  1
  H  H89  1  0.84960000  0.65380000  0.42613000  1
  H  H90  1  0.84330000  0.20450000  0.80167000  1
  H  H91  1  0.84330000  0.63880000  0.19833000  1
  H  H92  1  0.84240000  0.90230000  0.76120000  1
  H  H93  1  0.84240000  0.94010000  0.23880000  1
  H  H94  1  0.84030000  0.91180000  0.89170000  1
  H  H95  1  0.84030000  0.92850000  0.10830000  1
  H  H96  1  0.83810000  0.06370000  0.06840000  1
  H  H97  1  0.83810000  0.77440000  0.93160000  1
  H  H98  1  0.83720000  0.32440000  0.59027000  1
  H  H99  1  0.83720000  0.51280000  0.40973000  1
  H  H100  1  0.83350000  0.08350000  0.52697000  1
  H  H101  1  0.83350000  0.75000000  0.47303000  1
  H  H102  1  0.83180000  0.34170000  0.71820000  1
  H  H103  1  0.83180000  0.49010000  0.28180000  1
  H  H104  1  0.83150000  0.21520000  0.13220000  1
  H  H105  1  0.83150000  0.61630000  0.86780000  1
  H  H106  1  0.82800000  0.04690000  0.73100000  1
  H  H107  1  0.82800000  0.78110000  0.26900000  1
  H  H108  1  0.81280000  0.28810000  0.93520000  1
  H  H109  1  0.81280000  0.52470000  0.06480000  1
  H  H110  1  0.81110000  0.84360000  0.92890000  1
  H  H111  1  0.81110000  0.96750000  0.07110000  1
  H  H112  1  0.81060000  0.86620000  0.27160000  1
  H  H113  1  0.81060000  0.94440000  0.72840000  1
  H  H114  1  0.80420000  0.15040000  0.09280000  1
  H  H115  1  0.80420000  0.65380000  0.90720000  1
  H  H116  1  0.80410000  0.13330000  0.76657000  1
  H  H117  1  0.80410000  0.67080000  0.23343000  1
  H  H118  1  0.79550000  0.15670000  0.86500000  1
  H  H119  1  0.79550000  0.38480000  0.74570000  1
  H  H120  1  0.79550000  0.41070000  0.25430000  1
  H  H121  1  0.79550000  0.63880000  0.13500000  1
  H  H122  1  0.79340000  0.03300000  0.90057000  1
  H  H123  1  0.79340000  0.76040000  0.09943000  1
  H  H124  1  0.78480000  0.16850000  0.53447000  1
  H  H125  1  0.78480000  0.61630000  0.46553000  1
  H  H126  1  0.77220000  0.29700000  0.55097000  1
  H  H127  1  0.77220000  0.47520000  0.44903000  1
  H  H128  1  0.76660000  0.04180000  0.56477000  1
  H  H129  1  0.76660000  0.72480000  0.43523000  1
  H  H130  1  0.75110000  0.25840000  0.76667000  1
  H  H131  1  0.75110000  0.49270000  0.23333000  1
  H  H132  1  0.74160000  0.24890000  0.90000000  1
  H  H133  1  0.74160000  0.49270000  0.10000000  1
  H  H134  1  0.71190000  0.18720000  0.73147000  1
  H  H135  1  0.71190000  0.52470000  0.26853000  1
  H  H136  1  0.70300000  0.22780000  0.11570000  1
  H  H137  1  0.70300000  0.47520000  0.88430000  1
  H  H138  1  0.70110000  0.82260000  0.80460000  1
  H  H139  1  0.70110000  0.87850000  0.19540000  1
  H  H140  1  0.69010000  0.82080000  0.12900000  1
  H  H141  1  0.69010000  0.86930000  0.87100000  1
  H  H142  1  0.67560000  0.16280000  0.07640000  1
  H  H143  1  0.67560000  0.51280000  0.92360000  1
  H  H144  1  0.66930000  0.80460000  0.22820000  1
  H  H145  1  0.66930000  0.86470000  0.77180000  1
  H  H146  1  0.66090000  0.80120000  0.90830000  1
  H  H147  1  0.66090000  0.85970000  0.09170000  1
  H  H148  1  0.65830000  0.16820000  0.94847000  1
  H  H149  1  0.65830000  0.49010000  0.05153000  1
  H  H150  1  0.63440000  0.08300000  0.56923000  1
  H  H151  1  0.63440000  0.55140000  0.43077000  1
  H  H152  1  0.62910000  0.77520000  0.41837000  1
  H  H153  1  0.62910000  0.85390000  0.58163000  1
  H  H154  1  0.61680000  0.12160000  0.73390000  1
  H  H155  1  0.61680000  0.49520000  0.26610000  1
  H  H156  1  0.61520000  0.20450000  0.92097000  1
  H  H157  1  0.61520000  0.41070000  0.07903000  1
  H  H158  1  0.59990000  0.11610000  0.53153000  1
  H  H159  1  0.59990000  0.48380000  0.46847000  1
  H  H160  1  0.59660000  0.71670000  0.10583000  1
  H  H161  1  0.59660000  0.87990000  0.89417000  1
  H  H162  1  0.59650000  0.77580000  0.55273000  1
  H  H163  1  0.59650000  0.82070000  0.44727000  1
  H  H164  1  0.59010000  0.04100000  0.89067000  1
  H  H165  1  0.59010000  0.54910000  0.10933000  1
  H  H166  1  0.58930000  0.20450000  0.41237000  1
  H  H167  1  0.58930000  0.38480000  0.58763000  1
  H  H168  1  0.57010000  0.78490000  0.02943000  1
  H  H169  1  0.57010000  0.78520000  0.97057000  1
  H  H170  1  0.56750000  0.75950000  0.14023000  1
  H  H171  1  0.56750000  0.80800000  0.85977000  1
  H  H172  1  0.55360000  0.77170000  0.66103000  1
  H  H173  1  0.55360000  0.78190000  0.33897000  1
  H  H174  1  0.54920000  0.08850000  0.69610000  1
  H  H175  1  0.54920000  0.46070000  0.30390000  1
  H  H176  1  0.54700000  0.07740000  0.86317000  1
  H  H177  1  0.54700000  0.46960000  0.13683000  1
  H  H178  1  0.54140000  0.64950000  0.21413000  1
  H  H179  1  0.54140000  0.89190000  0.78587000  1
  H  H180  1  0.54100000  0.71330000  0.93617000  1
  H  H181  1  0.54100000  0.82770000  0.06383000  1
  H  H182  1  0.54000000  0.01030000  0.09730000  1
  H  H183  1  0.54000000  0.52970000  0.90270000  1
  H  H184  1  0.53930000  0.08850000  0.63723000  1
  H  H185  1  0.53930000  0.45080000  0.36277000  1
  H  H186  1  0.53040000  0.07740000  0.47017000  1
  H  H187  1  0.53040000  0.45300000  0.52983000  1
  H  H188  1  0.52950000  0.53640000  0.47433000  1
  H  H189  1  0.52950000  0.99310000  0.52567000  1
  H  H190  1  0.52480000  0.22780000  0.21763000  1
  H  H191  1  0.52480000  0.29700000  0.78237000  1
  H  H192  1  0.52100000  0.69360000  0.63213000  1
  H  H193  1  0.52100000  0.82740000  0.36787000  1
  H  H194  1  0.51690000  0.01120000  0.76247000  1
  H  H195  1  0.51690000  0.50570000  0.23753000  1
  H  H196  1  0.51620000  0.11610000  0.80180000  1
  H  H197  1  0.51620000  0.40010000  0.19820000  1
  H  H198  1  0.51380000  0.52960000  0.79987000  1
  H  H199  1  0.51380000  0.98420000  0.20013000  1
  H  H200  1  0.50990000  0.16820000  0.38487000  1
  H  H201  1  0.50990000  0.34170000  0.61513000  1
  H  H202  1  0.50730000  0.24890000  0.43333000  1
  H  H203  1  0.50730000  0.25840000  0.56667000  1
  H  H204  1  0.50480000  0.12160000  0.59943000  1
  H  H205  1  0.50480000  0.38320000  0.40057000  1
  H  H206  1  0.49430000  0.01120000  0.57087000  1
  H  H207  1  0.49430000  0.48310000  0.42913000  1
  H  H208  1  0.48820000  0.61430000  0.16903000  1
  H  H209  1  0.48820000  0.87390000  0.83097000  1
  H  H210  1  0.48720000  0.16280000  0.25693000  1
  H  H211  1  0.48720000  0.32440000  0.74307000  1
  H  H212  1  0.47530000  0.18720000  0.60187000  1
  H  H213  1  0.47530000  0.28810000  0.39813000  1
  H  H214  1  0.47290000  0.61020000  0.93780000  1
  H  H215  1  0.47290000  0.86270000  0.06220000  1
  H  H216  1  0.47040000  0.48620000  0.86680000  1
  H  H217  1  0.47040000  0.98420000  0.13320000  1
  H  H218  1  0.47030000  0.01030000  0.23603000  1
  H  H219  1  0.47030000  0.46000000  0.76397000  1
  H  H220  1  0.46360000  0.47050000  0.19233000  1
  H  H221  1  0.46360000  0.99310000  0.80767000  1
  H  H222  1  0.45090000  0.04100000  0.44267000  1
  H  H223  1  0.45090000  0.40990000  0.55733000  1
  H  H224  1  0.44860000  0.08300000  0.76410000  1
  H  H225  1  0.44860000  0.36560000  0.23590000  1
  H  H226  1  0.43330000  0.59670000  0.76477000  1
  H  H227  1  0.43330000  0.83660000  0.23523000  1
  H  H228  1  0.40330000  0.56670000  0.90190000  1
  H  H229  1  0.40330000  0.83660000  0.09810000  1
  H  H230  1  0.38980000  0.52710000  0.72887000  1
  H  H231  1  0.38980000  0.86270000  0.27113000  1
  H  H232  1  0.38570000  0.51180000  0.49763000  1
  H  H233  1  0.38570000  0.87390000  0.50237000  1
  H  H234  1  0.38370000  0.16850000  0.79887000  1
  H  H235  1  0.38370000  0.21520000  0.20113000  1
  H  H236  1  0.36120000  0.15670000  0.46833000  1
  H  H237  1  0.36120000  0.20450000  0.53167000  1
  H  H238  1  0.35050000  0.45860000  0.45253000  1
  H  H239  1  0.35050000  0.89190000  0.54747000  1
  H  H240  1  0.34620000  0.15040000  0.24053000  1
  H  H241  1  0.34620000  0.19580000  0.75947000  1
  H  H242  1  0.32920000  0.13330000  0.56677000  1
  H  H243  1  0.32920000  0.19590000  0.43323000  1
  H  H244  1  0.30640000  0.47900000  0.03453000  1
  H  H245  1  0.30640000  0.82740000  0.96547000  1
  H  H246  1  0.28670000  0.45900000  0.73050000  1
  H  H247  1  0.28670000  0.82770000  0.26950000  1
  H  H248  1  0.28330000  0.40340000  0.56083000  1
  H  H249  1  0.28330000  0.87990000  0.43917000  1
  H  H250  1  0.27520000  0.04180000  0.76857000  1
  H  H251  1  0.27520000  0.23340000  0.23143000  1
  H  H252  1  0.25070000  0.12020000  0.69737000  1
  H  H253  1  0.25070000  0.13050000  0.30263000  1
  H  H254  1  0.25000000  0.08350000  0.80637000  1
  H  H255  1  0.25000000  0.16650000  0.19363000  1
  H  H256  1  0.24780000  0.11700000  0.63803000  1
  H  H257  1  0.24780000  0.13080000  0.36197000  1
  H  H258  1  0.24050000  0.43250000  0.52643000  1
  H  H259  1  0.24050000  0.80800000  0.47357000  1
  H  H260  1  0.23960000  0.03300000  0.43277000  1
  H  H261  1  0.23960000  0.20660000  0.56723000  1
  H  H262  1  0.22830000  0.44640000  0.00563000  1
  H  H263  1  0.22830000  0.78190000  0.99437000  1
  H  H264  1  0.22560000  0.06370000  0.26493000  1
  H  H265  1  0.22560000  0.16190000  0.73507000  1
  H  H266  1  0.22480000  0.37090000  0.24830000  1
  H  H267  1  0.22480000  0.85390000  0.75170000  1
  H  H268  1  0.22420000  0.40350000  0.11393000  1
  H  H269  1  0.22420000  0.82070000  0.88607000  1
  H  H270  1  0.21890000  0.04690000  0.60233000  1
  H  H271  1  0.21890000  0.17200000  0.39767000  1
  H  H272  1  0.21810000  0.44640000  0.32770000  1
  H  H273  1  0.21810000  0.77170000  0.67230000  1
  H  H274  1  0.21510000  0.42990000  0.63723000  1
  H  H275  1  0.21510000  0.78520000  0.36277000  1
  H  H276  1  0.21480000  0.42990000  0.69610000  1
  H  H277  1  0.21480000  0.78490000  0.30390000  1
  H  H278  1  0.21070000  0.07420000  0.46837000  1
  H  H279  1  0.21070000  0.13650000  0.53163000  1
  H  H280  1  0.19880000  0.33910000  0.75837000  1
  H  H281  1  0.19880000  0.85970000  0.24163000  1
  H  H282  1  0.19540000  0.33070000  0.43847000  1
  H  H283  1  0.19540000  0.86470000  0.56153000  1
  H  H284  1  0.19200000  0.43250000  0.80690000  1
  H  H285  1  0.19200000  0.75950000  0.19310000  1
  H  H286  1  0.17930000  0.40350000  0.21940000  1
  H  H287  1  0.17930000  0.77580000  0.78060000  1
  H  H288  1  0.17920000  0.30990000  0.53767000  1
  H  H289  1  0.17920000  0.86930000  0.46233000  1
  H  H290  1  0.17740000  0.29890000  0.86207000  1
  H  H291  1  0.17740000  0.87850000  0.13793000  1
  H  H292  1  0.17260000  0.47900000  0.29880000  1
  H  H293  1  0.17260000  0.69360000  0.70120000  1
  H  H294  1  0.17230000  0.45900000  0.60283000  1
  H  H295  1  0.17230000  0.71330000  0.39717000  1
  H  H296  1  0.16340000  0.56670000  0.43143000  1
  H  H297  1  0.16340000  0.59670000  0.56857000  1
  H  H298  1  0.15640000  0.18890000  0.73777000  1
  H  H299  1  0.15640000  0.96750000  0.26223000  1
  H  H300  1  0.14610000  0.37090000  0.08503000  1
  H  H301  1  0.14610000  0.77520000  0.91497000  1
  H  H302  1  0.14030000  0.33910000  0.57497000  1
  H  H303  1  0.14030000  0.80120000  0.42503000  1
  H  H304  1  0.13730000  0.52710000  0.60447000  1
  H  H305  1  0.13730000  0.61020000  0.39553000  1
  H  H306  1  0.13530000  0.33070000  0.89487000  1
  H  H307  1  0.13530000  0.80460000  0.10513000  1
  H  H308  1  0.13380000  0.18940000  0.39507000  1
  H  H309  1  0.13380000  0.94440000  0.60493000  1
  H  H310  1  0.13070000  0.30990000  0.79567000  1
  H  H311  1  0.13070000  0.82080000  0.20433000  1
  H  H312  1  0.12610000  0.51180000  0.83570000  1
  H  H313  1  0.12610000  0.61430000  0.16430000  1
  H  H314  1  0.12150000  0.29890000  0.47127000  1
  H  H315  1  0.12150000  0.82260000  0.52873000  1
  H  H316  1  0.12010000  0.40340000  0.77250000  1
  H  H317  1  0.12010000  0.71670000  0.22750000  1
  H  H318  1  0.10810000  0.45860000  0.88080000  1
  H  H319  1  0.10810000  0.64950000  0.11920000  1
  H  H320  1  0.09770000  0.15760000  0.90547000  1
  H  H321  1  0.09770000  0.94010000  0.09453000  1
  H  H322  1  0.08820000  0.15970000  0.77497000  1
  H  H323  1  0.08820000  0.92850000  0.22503000  1
  H  H324  1  0.07150000  0.15970000  0.55837000  1
  H  H325  1  0.07150000  0.91180000  0.44163000  1
  H  H326  1  0.05990000  0.15760000  0.42787000  1
  H  H327  1  0.05990000  0.90230000  0.57213000  1
  H  H328  1  0.05560000  0.18940000  0.93827000  1
  H  H329  1  0.05560000  0.86620000  0.06173000  1
  H  H330  1  0.03250000  0.18890000  0.59557000  1
  H  H331  1  0.03250000  0.84360000  0.40443000  1
  H  H332  1  0.01580000  0.48620000  0.46653000  1
  H  H333  1  0.01580000  0.52960000  0.53347000  1
  H  H334  1  0.00690000  0.47050000  0.14100000  1
  H  H335  1  0.00690000  0.53640000  0.85900000  1
  C  C336  1  0.99010000  0.17490000  0.85377000  1
  C  C337  1  0.99010000  0.81520000  0.14623000  1
  C  C338  1  0.96610000  0.16740000  0.51587000  1
  C  C339  1  0.96610000  0.79870000  0.48413000  1
  C  C340  1  0.95590000  0.15600000  0.87377000  1
  C  C341  1  0.95590000  0.79990000  0.12623000  1
  C  C342  1  0.94870000  0.23120000  0.03930000  1
  C  C343  1  0.94870000  0.71750000  0.96070000  1
  C  C344  1  0.94830000  0.21460000  0.70630000  1
  C  C345  1  0.94830000  0.73370000  0.29370000  1
  C  C346  1  0.94310000  0.39200000  0.03673000  1
  C  C347  1  0.94310000  0.55110000  0.96327000  1
  C  C348  1  0.93880000  0.17420000  0.75895000  1
  C  C349  1  0.93880000  0.76460000  0.24105000  1
  C  C350  1  0.93380000  0.19890000  0.09514000  1
  C  C351  1  0.93380000  0.73490000  0.90486000  1
  C  C352  1  0.93370000  0.15000000  0.53607000  1
  C  C353  1  0.93370000  0.78370000  0.46393000  1
  C  C354  1  0.92580000  0.40480000  0.76980000  1
  C  C355  1  0.92580000  0.52100000  0.23020000  1
  C  C356  1  0.92290000  0.18820000  0.06274000  1
  C  C357  1  0.92290000  0.73470000  0.93726000  1
  C  C358  1  0.92200000  0.16840000  0.72734000  1
  C  C359  1  0.92200000  0.75360000  0.27266000  1
  C  C360  1  0.92140000  0.34430000  0.72570000  1
  C  C361  1  0.92140000  0.57710000  0.27430000  1
  C  C362  1  0.92070000  0.14380000  0.92853000  1
  C  C363  1  0.92070000  0.77690000  0.07147000  1
  C  C364  1  0.91740000  0.40990000  0.05987000  1
  C  C365  1  0.91740000  0.50750000  0.94013000  1
  C  C366  1  0.91490000  0.12700000  0.89693000  1
  C  C367  1  0.91490000  0.78790000  0.10307000  1
  C  C368  1  0.91430000  0.13250000  0.78014000  1
  C  C369  1  0.91430000  0.78180000  0.21986000  1
  C  C370  1  0.90920000  0.39190000  0.09127000  1
  C  C371  1  0.90920000  0.51730000  0.90873000  1
  C  C372  1  0.90910000  0.15930000  0.11758000  1
  C  C373  1  0.90910000  0.74980000  0.88242000  1
  C  C374  1  0.90590000  0.44840000  0.05091000  1
  C  C375  1  0.90590000  0.45750000  0.94909000  1
  C  C376  1  0.90420000  0.43040000  0.78620000  1
  C  C377  1  0.90420000  0.47380000  0.21380000  1
  C  C378  1  0.90190000  0.13750000  0.59147000  1
  C  C379  1  0.90190000  0.76440000  0.40853000  1
  C  C380  1  0.89880000  0.37170000  0.74450000  1
  C  C381  1  0.89880000  0.52710000  0.25550000  1
  C  C382  1  0.89270000  0.27220000  0.94200000  1
  C  C383  1  0.89270000  0.62050000  0.05800000  1
  C  C384  1  0.89120000  0.12660000  0.55904000  1
  C  C385  1  0.89120000  0.76460000  0.44096000  1
  C  C386  1  0.88950000  0.41240000  0.11370000  1
  C  C387  1  0.88950000  0.47710000  0.88630000  1
  C  C388  1  0.88840000  0.27720000  0.61187000  1
  C  C389  1  0.88840000  0.61120000  0.38813000  1
  C  C390  1  0.88730000  0.13790000  0.05279000  1
  C  C391  1  0.88730000  0.74940000  0.94721000  1
  C  C392  1  0.88630000  0.41740000  0.92665000  1
  C  C393  1  0.88630000  0.46890000  0.07335000  1
  C  C394  1  0.88070000  0.12100000  0.71694000  1
  C  C395  1  0.88070000  0.75970000  0.28306000  1
  C  C396  1  0.87900000  0.11930000  0.94973000  1
  C  C397  1  0.87900000  0.75970000  0.05027000  1
  C  C398  1  0.87810000  0.42720000  0.89526000  1
  C  C399  1  0.87810000  0.45090000  0.10474000  1
  C  C400  1  0.87340000  0.10880000  0.10763000  1
  C  C401  1  0.87340000  0.76460000  0.89237000  1
  C  C402  1  0.87300000  0.08510000  0.76974000  1
  C  C403  1  0.87300000  0.78790000  0.23026000  1
  C  C404  1  0.86750000  0.08570000  0.88653000  1
  C  C405  1  0.86750000  0.78180000  0.11347000  1
  C  C406  1  0.86550000  0.38730000  0.87077000  1
  C  C407  1  0.86550000  0.47820000  0.12923000  1
  C  C408  1  0.86250000  0.09810000  0.07520000  1
  C  C409  1  0.86250000  0.76440000  0.92480000  1
  C  C410  1  0.86210000  0.11270000  0.61388000  1
  C  C411  1  0.86210000  0.74940000  0.38612000  1
  C  C412  1  0.85620000  0.07930000  0.73814000  1
  C  C413  1  0.85620000  0.77690000  0.26186000  1
  C  C414  1  0.85560000  0.42300000  0.77720000  1
  C  C415  1  0.85560000  0.43260000  0.22280000  1
  C  C416  1  0.85180000  0.35450000  0.85057000  1
  C  C417  1  0.85180000  0.49730000  0.14943000  1
  C  C418  1  0.85030000  0.36430000  0.73545000  1
  C  C419  1  0.85030000  0.48600000  0.26455000  1
  C  C420  1  0.85000000  0.06630000  0.13060000  1
  C  C421  1  0.85000000  0.78370000  0.86940000  1
  C  C422  1  0.84950000  0.26270000  0.58571000  1
  C  C423  1  0.84950000  0.58680000  0.41429000  1
  C  C424  1  0.84650000  0.24570000  0.92095000  1
  C  C425  1  0.84650000  0.60080000  0.07905000  1
  C  C426  1  0.84400000  0.04410000  0.79290000  1
  C  C427  1  0.84400000  0.79990000  0.20710000  1
  C  C428  1  0.84130000  0.20660000  0.90012000  1
  C  C429  1  0.84130000  0.63470000  0.09988000  1
  C  C430  1  0.84070000  0.09090000  0.54909000  1
  C  C431  1  0.84070000  0.74980000  0.45091000  1
  C  C432  1  0.83720000  0.38590000  0.20400000  1
  C  C433  1  0.83720000  0.45130000  0.79600000  1
  C  C434  1  0.83440000  0.31470000  0.82947000  1
  C  C435  1  0.83440000  0.51970000  0.17053000  1
  C  C436  1  0.83400000  0.21640000  0.56917000  1
  C  C437  1  0.83400000  0.61760000  0.43083000  1
  C  C438  1  0.83260000  0.03390000  0.15080000  1
  C  C439  1  0.83260000  0.79870000  0.84920000  1
  C  C440  1  0.83160000  0.07800000  0.93933000  1
  C  C441  1  0.83160000  0.75360000  0.06067000  1
  C  C442  1  0.82870000  0.38990000  0.75190000  1
  C  C443  1  0.82870000  0.43880000  0.24810000  1
  C  C444  1  0.82650000  0.29270000  0.57897000  1
  C  C445  1  0.82650000  0.53380000  0.42103000  1
  C  C446  1  0.82580000  0.06120000  0.90772000  1
  C  C447  1  0.82580000  0.76460000  0.09228000  1
  C  C448  1  0.82510000  0.00990000  0.81290000  1
  C  C449  1  0.82510000  0.81520000  0.18710000  1
  C  C450  1  0.82290000  0.28200000  0.80937000  1
  C  C451  1  0.82290000  0.54090000  0.19063000  1
  C  C452  1  0.81770000  0.34550000  0.18930000  1
  C  C453  1  0.81770000  0.47220000  0.81070000  1
  C  C454  1  0.81660000  0.20100000  0.78741000  1
  C  C455  1  0.81660000  0.61560000  0.21259000  1
  C  C456  1  0.81390000  0.81760000  0.82600000  1
  C  C457  1  0.81390000  0.99630000  0.17400000  1
  C  C458  1  0.81180000  0.07710000  0.60393000  1
  C  C459  1  0.81180000  0.73470000  0.39607000  1
  C  C460  1  0.80930000  0.26140000  0.92092000  1
  C  C461  1  0.80930000  0.54790000  0.07908000  1
  C  C462  1  0.80730000  0.89470000  0.76340000  1
  C  C463  1  0.80730000  0.91260000  0.23660000  1
  C  C464  1  0.80430000  0.83140000  0.16450000  1
  C  C465  1  0.80430000  0.97290000  0.83550000  1
  C  C466  1  0.80390000  0.88940000  0.89500000  1
  C  C467  1  0.80390000  0.91450000  0.10500000  1
  C  C468  1  0.80110000  0.06620000  0.57153000  1
  C  C469  1  0.80110000  0.73490000  0.42847000  1
  C  C470  1  0.80080000  0.23810000  0.78743000  1
  C  C471  1  0.80080000  0.56270000  0.21257000  1
  C  C472  1  0.80040000  0.29990000  0.17310000  1
  C  C473  1  0.80040000  0.50050000  0.82690000  1
  C  C474  1  0.79990000  0.20460000  0.12080000  1
  C  C475  1  0.79990000  0.59530000  0.87920000  1
  C  C476  1  0.79900000  0.18340000  0.87926000  1
  C  C477  1  0.79900000  0.61560000  0.12074000  1
  C  C478  1  0.79630000  0.83660000  0.80800000  1
  C  C479  1  0.79630000  0.95970000  0.19200000  1
  C  C480  1  0.79540000  0.20010000  0.54587000  1
  C  C481  1  0.79540000  0.59530000  0.45413000  1
  C  C482  1  0.79340000  0.15870000  0.76655000  1
  C  C483  1  0.79340000  0.63470000  0.23345000  1
  C  C484  1  0.78840000  0.86870000  0.25613000  1
  C  C485  1  0.78840000  0.91970000  0.74387000  1
  C  C486  1  0.78800000  0.27650000  0.55557000  1
  C  C487  1  0.78800000  0.51150000  0.44443000  1
  C  C488  1  0.78650000  0.84880000  0.91720000  1
  C  C489  1  0.78650000  0.93770000  0.08280000  1
  C  C490  1  0.78580000  0.26740000  0.15210000  1
  C  C491  1  0.78580000  0.51840000  0.84790000  1
  C  C492  1  0.78560000  0.84630000  0.14490000  1
  C  C493  1  0.78560000  0.93930000  0.85510000  1
  C  C494  1  0.78540000  0.05170000  0.96037000  1
  C  C495  1  0.78540000  0.73370000  0.03963000  1
  C  C496  1  0.78360000  0.16600000  0.09750000  1
  C  C497  1  0.78360000  0.61760000  0.90250000  1
  C  C498  1  0.77470000  0.85850000  0.78600000  1
  C  C499  1  0.77470000  0.91620000  0.21400000  1
  C  C500  1  0.77240000  0.23020000  0.53907000  1
  C  C501  1  0.77240000  0.54220000  0.46093000  1
  C  C502  1  0.76980000  0.22760000  0.12760000  1
  C  C503  1  0.76980000  0.54220000  0.87240000  1
  C  C504  1  0.76880000  0.05130000  0.62737000  1
  C  C505  1  0.76880000  0.71750000  0.37263000  1
  C  C506  1  0.76790000  0.87100000  0.12214000  1
  C  C507  1  0.76790000  0.89690000  0.87786000  1
  C  C508  1  0.76700000  0.23820000  0.90010000  1
  C  C509  1  0.76700000  0.52880000  0.09990000  1
  C  C510  1  0.76190000  0.19920000  0.87924000  1
  C  C511  1  0.76190000  0.56270000  0.12076000  1
  C  C512  1  0.76180000  0.23300000  0.76657000  1
  C  C513  1  0.76180000  0.52880000  0.23343000  1
  C  C514  1  0.75430000  0.15350000  0.74572000  1
  C  C515  1  0.75430000  0.60080000  0.25428000  1
  C  C516  1  0.73860000  0.19070000  0.74575000  1
  C  C517  1  0.73860000  0.54790000  0.25425000  1
  C  C518  1  0.73730000  0.15050000  0.08096000  1
  C  C519  1  0.73730000  0.58680000  0.91904000  1
  C  C520  1  0.73700000  0.82850000  0.25300000  1
  C  C521  1  0.73700000  0.90850000  0.74700000  1
  C  C522  1  0.73330000  0.81600000  0.92208000  1
  C  C523  1  0.73330000  0.91730000  0.07792000  1
  C  C524  1  0.73260000  0.21420000  0.51457000  1
  C  C525  1  0.73260000  0.51840000  0.48543000  1
  C  C526  1  0.72780000  0.10730000  0.72467000  1
  C  C527  1  0.72780000  0.62050000  0.27533000  1
  C  C528  1  0.72350000  0.21200000  0.11110000  1
  C  C529  1  0.72350000  0.51150000  0.88890000  1
  C  C530  1  0.72330000  0.84740000  0.78916000  1
  C  C531  1  0.72330000  0.87590000  0.21084000  1
  C  C532  1  0.72280000  0.11160000  0.05480000  1
  C  C533  1  0.72280000  0.61120000  0.94520000  1
  C  C534  1  0.71800000  0.17710000  0.85730000  1
  C  C535  1  0.71800000  0.54090000  0.14270000  1
  C  C536  1  0.71580000  0.78160000  0.27420000  1
  C  C537  1  0.71580000  0.93420000  0.72580000  1
  C  C538  1  0.71470000  0.77130000  0.94440000  1
  C  C539  1  0.71470000  0.85050000  0.11720000  1
  C  C540  1  0.71470000  0.86420000  0.88280000  1
  C  C541  1  0.71470000  0.94340000  0.05560000  1
  C  C542  1  0.70730000  0.17350000  0.08770000  1
  C  C543  1  0.70730000  0.53380000  0.91230000  1
  C  C544  1  0.70440000  0.83210000  0.23040000  1
  C  C545  1  0.70440000  0.87230000  0.76960000  1
  C  C546  1  0.70010000  0.19960000  0.49357000  1
  C  C547  1  0.70010000  0.50050000  0.50643000  1
  C  C548  1  0.69730000  0.82360000  0.90490000  1
  C  C549  1  0.69730000  0.87370000  0.09510000  1
  C  C550  1  0.68530000  0.16560000  0.83720000  1
  C  C551  1  0.68530000  0.51970000  0.16280000  1
  C  C552  1  0.65570000  0.07860000  0.94097000  1
  C  C553  1  0.65570000  0.57710000  0.05903000  1
  C  C554  1  0.65450000  0.18230000  0.47737000  1
  C  C555  1  0.65450000  0.47220000  0.52263000  1
  C  C556  1  0.64550000  0.14820000  0.81610000  1
  C  C557  1  0.64550000  0.49730000  0.18390000  1
  C  C558  1  0.63570000  0.14970000  0.93122000  1
  C  C559  1  0.63570000  0.48600000  0.06878000  1
  C  C560  1  0.62830000  0.10120000  0.92217000  1
  C  C561  1  0.62830000  0.52710000  0.07783000  1
  C  C562  1  0.61920000  0.75070000  0.35497000  1
  C  C563  1  0.61920000  0.86850000  0.64503000  1
  C  C564  1  0.61410000  0.16280000  0.46267000  1
  C  C565  1  0.61410000  0.45130000  0.53733000  1
  C  C566  1  0.61270000  0.13450000  0.79590000  1
  C  C567  1  0.61270000  0.47820000  0.20410000  1
  C  C568  1  0.61010000  0.17130000  0.91477000  1
  C  C569  1  0.61010000  0.43880000  0.08523000  1
  C  C570  1  0.60890000  0.72320000  0.04273000  1
  C  C571  1  0.60890000  0.88570000  0.95727000  1
  C  C572  1  0.60810000  0.09080000  0.57539000  1
  C  C573  1  0.60810000  0.51730000  0.42461000  1
  C  C574  1  0.60800000  0.05690000  0.62993000  1
  C  C575  1  0.60800000  0.55110000  0.37007000  1
  C  C576  1  0.60710000  0.78580000  0.40807000  1
  C  C577  1  0.60710000  0.82130000  0.59193000  1
  C  C578  1  0.59520000  0.07420000  0.89687000  1
  C  C579  1  0.59520000  0.52100000  0.10313000  1
  C  C580  1  0.59440000  0.77430000  0.37597000  1
  C  C581  1  0.59440000  0.82010000  0.62403000  1
  C  C582  1  0.59010000  0.08260000  0.60679000  1
  C  C583  1  0.59010000  0.50750000  0.39321000  1
  C  C584  1  0.58780000  0.77500000  0.57473000  1
  C  C585  1  0.58780000  0.81280000  0.42527000  1
  C  C586  1  0.58760000  0.11050000  0.55296000  1
  C  C587  1  0.58760000  0.47710000  0.44704000  1
  C  C588  1  0.58610000  0.74680000  0.06443000  1
  C  C589  1  0.58610000  0.83930000  0.93557000  1
  C  C590  1  0.58540000  0.73930000  0.09733000  1
  C  C591  1  0.58540000  0.84610000  0.90267000  1
  C  C592  1  0.58260000  0.11370000  0.74002000  1
  C  C593  1  0.58260000  0.46890000  0.25998000  1
  C  C594  1  0.57700000  0.14440000  0.88947000  1
  C  C595  1  0.57700000  0.43260000  0.11053000  1
  C  C596  1  0.57370000  0.60260000  0.25573000  1
  C  C597  1  0.57370000  0.97110000  0.74427000  1
  C  C598  1  0.57280000  0.12190000  0.77141000  1
  C  C599  1  0.57280000  0.45090000  0.22859000  1
  C  C600  1  0.56960000  0.77980000  0.05194000  1
  C  C601  1  0.56960000  0.78980000  0.94806000  1
  C  C602  1  0.56960000  0.09580000  0.88047000  1
  C  C603  1  0.56960000  0.47380000  0.11953000  1
  C  C604  1  0.56810000  0.76470000  0.11773000  1
  C  C605  1  0.56810000  0.80340000  0.88227000  1
  C  C606  1  0.56740000  0.14440000  0.44387000  1
  C  C607  1  0.56740000  0.42300000  0.55613000  1
  C  C608  1  0.56230000  0.77250000  0.63903000  1
  C  C609  1  0.56230000  0.78980000  0.36097000  1
  C  C610  1  0.56120000  0.17130000  0.41857000  1
  C  C611  1  0.56120000  0.38990000  0.58143000  1
  C  C612  1  0.55820000  0.60360000  0.94640000  1
  C  C613  1  0.55820000  0.95460000  0.05360000  1
  C  C614  1  0.55570000  0.72740000  0.58973000  1
  C  C615  1  0.55570000  0.82830000  0.41027000  1
  C  C616  1  0.55230000  0.74710000  0.92766000  1
  C  C617  1  0.55230000  0.80520000  0.07234000  1
  C  C618  1  0.55160000  0.75390000  0.89476000  1
  C  C619  1  0.55160000  0.79770000  0.10524000  1
  C  C620  1  0.55160000  0.09410000  0.61575000  1
  C  C621  1  0.55160000  0.45750000  0.38425000  1
  C  C622  1  0.54910000  0.12190000  0.56192000  1
  C  C623  1  0.54910000  0.42720000  0.43808000  1
  C  C624  1  0.54870000  0.16280000  0.87067000  1
  C  C625  1  0.54870000  0.38590000  0.12933000  1
  C  C626  1  0.54290000  0.72610000  0.62193000  1
  C  C627  1  0.54290000  0.81680000  0.37807000  1
  C  C628  1  0.54250000  0.09410000  0.71758000  1
  C  C629  1  0.54250000  0.44840000  0.28242000  1
  C  C630  1  0.53800000  0.70990000  0.87437000  1
  C  C631  1  0.53800000  0.82810000  0.12563000  1
  C  C632  1  0.53410000  0.58090000  0.23013000  1
  C  C633  1  0.53410000  0.95320000  0.76987000  1
  C  C634  1  0.53280000  0.68060000  0.57053000  1
  C  C635  1  0.53280000  0.85220000  0.42947000  1
  C  C636  1  0.53110000  0.11370000  0.59331000  1
  C  C637  1  0.53110000  0.41740000  0.40669000  1
  C  C638  1  0.52780000  0.18230000  0.85597000  1
  C  C639  1  0.52780000  0.34550000  0.14403000  1
  C  C640  1  0.52620000  0.09580000  0.45287000  1
  C  C641  1  0.52620000  0.43040000  0.54713000  1
  C  C642  1  0.52560000  0.61310000  0.20973000  1
  C  C643  1  0.52560000  0.91250000  0.79027000  1
  C  C644  1  0.52470000  0.67580000  0.85537000  1
  C  C645  1  0.52470000  0.84890000  0.14463000  1
  C  C646  1  0.52290000  0.11050000  0.78037000  1
  C  C647  1  0.52290000  0.41240000  0.21963000  1
  C  C648  1  0.52180000  0.13450000  0.53743000  1
  C  C649  1  0.52180000  0.38730000  0.46257000  1
  C  C650  1  0.51400000  0.14970000  0.40212000  1
  C  C651  1  0.51400000  0.36430000  0.59788000  1
  C  C652  1  0.51290000  0.57390000  0.92360000  1
  C  C653  1  0.51290000  0.93900000  0.07640000  1
  C  C654  1  0.51220000  0.53720000  0.90260000  1
  C  C655  1  0.51220000  0.97500000  0.09740000  1
  C  C656  1  0.51100000  0.52770000  0.22363000  1
  C  C657  1  0.51100000  0.98330000  0.77637000  1
  C  C658  1  0.51070000  0.64240000  0.82957000  1
  C  C659  1  0.51070000  0.86830000  0.17043000  1
  C  C660  1  0.51030000  0.64930000  0.54853000  1
  C  C661  1  0.51030000  0.86100000  0.45147000  1
  C  C662  1  0.50310000  0.60720000  0.52993000  1
  C  C663  1  0.50310000  0.89590000  0.47007000  1
  C  C664  1  0.50270000  0.14820000  0.51723000  1
  C  C665  1  0.50270000  0.35450000  0.48277000  1
  C  C666  1  0.49950000  0.19960000  0.83977000  1
  C  C667  1  0.49950000  0.29990000  0.16023000  1
  C  C668  1  0.49830000  0.60750000  0.81127000  1
  C  C669  1  0.49830000  0.89080000  0.18873000  1
  C  C670  1  0.49400000  0.59220000  0.18293000  1
  C  C671  1  0.49400000  0.90180000  0.81707000  1
  C  C672  1  0.49320000  0.52060000  0.46983000  1
  C  C673  1  0.49320000  0.97260000  0.53017000  1
  C  C674  1  0.49250000  0.08260000  0.72654000  1
  C  C675  1  0.49250000  0.40990000  0.27346000  1
  C  C676  1  0.48860000  0.52910000  0.78547000  1
  C  C677  1  0.48860000  0.95950000  0.21453000  1
  C  C678  1  0.48850000  0.21200000  0.22223000  1
  C  C679  1  0.48850000  0.27650000  0.77777000  1
  C  C680  1  0.48270000  0.09080000  0.75794000  1
  C  C681  1  0.48270000  0.39190000  0.24206000  1
  C  C682  1  0.48160000  0.21420000  0.81877000  1
  C  C683  1  0.48160000  0.26740000  0.18123000  1
  C  C684  1  0.48070000  0.56710000  0.51553000  1
  C  C685  1  0.48070000  0.91360000  0.48447000  1
  C  C686  1  0.48030000  0.16560000  0.49613000  1
  C  C687  1  0.48030000  0.31470000  0.50387000  1
  C  C688  1  0.47940000  0.50680000  0.19683000  1
  C  C689  1  0.47940000  0.97260000  0.80317000  1
  C  C690  1  0.47900000  0.07420000  0.43647000  1
  C  C691  1  0.47900000  0.40480000  0.56353000  1
  C  C692  1  0.47760000  0.56970000  0.78567000  1
  C  C693  1  0.47760000  0.90790000  0.21433000  1
  C  C694  1  0.47290000  0.10120000  0.41117000  1
  C  C695  1  0.47290000  0.37170000  0.58883000  1
  C  C696  1  0.47240000  0.58500000  0.92340000  1
  C  C697  1  0.47240000  0.88740000  0.07660000  1
  C  C698  1  0.47230000  0.48900000  0.44303000  1
  C  C699  1  0.47230000  0.98330000  0.55697000  1
  C  C700  1  0.47120000  0.23300000  0.56677000  1
  C  C701  1  0.47120000  0.23820000  0.43323000  1
  C  C702  1  0.47090000  0.51140000  0.88120000  1
  C  C703  1  0.47090000  0.53910000  0.17643000  1
  C  C704  1  0.47090000  0.93180000  0.82357000  1
  C  C705  1  0.47090000  0.95950000  0.11880000  1
  C  C706  1  0.46620000  0.17350000  0.24563000  1
  C  C707  1  0.46620000  0.29270000  0.75437000  1
  C  C708  1  0.46280000  0.48780000  0.76407000  1
  C  C709  1  0.46280000  0.97500000  0.23593000  1
  C  C710  1  0.46090000  0.52910000  0.49023000  1
  C  C711  1  0.46090000  0.93180000  0.50977000  1
  C  C712  1  0.45910000  0.17710000  0.47603000  1
  C  C713  1  0.45910000  0.28200000  0.52397000  1
  C  C714  1  0.45780000  0.22760000  0.20573000  1
  C  C715  1  0.45780000  0.23020000  0.79427000  1
  C  C716  1  0.45210000  0.19070000  0.58759000  1
  C  C717  1  0.45210000  0.26140000  0.41241000  1
  C  C718  1  0.44890000  0.05690000  0.70340000  1
  C  C719  1  0.44890000  0.39200000  0.29660000  1
  C  C720  1  0.44070000  0.56890000  0.76467000  1
  C  C721  1  0.44070000  0.87180000  0.23533000  1
  C  C722  1  0.43730000  0.19920000  0.45409000  1
  C  C723  1  0.43730000  0.23810000  0.54591000  1
  C  C724  1  0.43290000  0.51930000  0.15113000  1
  C  C725  1  0.43290000  0.91360000  0.84887000  1
  C  C726  1  0.43110000  0.55930000  0.90200000  1
  C  C727  1  0.43110000  0.87180000  0.09800000  1
  C  C728  1  0.43030000  0.52240000  0.88100000  1
  C  C729  1  0.43030000  0.90790000  0.11900000  1
  C  C730  1  0.42610000  0.48710000  0.74307000  1
  C  C731  1  0.42610000  0.93900000  0.25693000  1
  C  C732  1  0.42290000  0.07860000  0.39237000  1
  C  C733  1  0.42290000  0.34430000  0.60763000  1
  C  C734  1  0.41910000  0.46590000  0.43653000  1
  C  C735  1  0.41910000  0.95320000  0.56347000  1
  C  C736  1  0.41500000  0.52760000  0.74327000  1
  C  C737  1  0.41500000  0.88740000  0.25673000  1
  C  C738  1  0.41320000  0.15050000  0.25237000  1
  C  C739  1  0.41320000  0.26270000  0.74763000  1
  C  C740  1  0.40780000  0.50600000  0.48373000  1
  C  C741  1  0.40780000  0.90180000  0.51627000  1
  C  C742  1  0.40470000  0.20010000  0.78747000  1
  C  C743  1  0.40470000  0.20460000  0.21253000  1
  C  C744  1  0.39920000  0.15350000  0.58762000  1
  C  C745  1  0.39920000  0.24570000  0.41238000  1
  C  C746  1  0.39740000  0.42630000  0.41093000  1
  C  C747  1  0.39740000  0.97110000  0.58907000  1
  C  C748  1  0.39640000  0.44180000  0.72027000  1
  C  C749  1  0.39640000  0.95460000  0.27973000  1
  C  C750  1  0.39280000  0.49690000  0.13673000  1
  C  C751  1  0.39280000  0.89590000  0.86327000  1
  C  C752  1  0.39250000  0.50170000  0.85540000  1
  C  C753  1  0.39250000  0.89080000  0.14460000  1
  C  C754  1  0.38880000  0.11160000  0.27853000  1
  C  C755  1  0.38880000  0.27720000  0.72147000  1
  C  C756  1  0.38690000  0.47440000  0.45693000  1
  C  C757  1  0.38690000  0.91250000  0.54307000  1
  C  C758  1  0.38440000  0.18340000  0.45407000  1
  C  C759  1  0.38440000  0.20100000  0.54593000  1
  C  C760  1  0.38240000  0.16600000  0.23583000  1
  C  C761  1  0.38240000  0.21640000  0.76417000  1
  C  C762  1  0.37950000  0.10730000  0.60867000  1
  C  C763  1  0.37950000  0.27220000  0.39133000  1
  C  C764  1  0.36530000  0.15870000  0.56679000  1
  C  C765  1  0.36530000  0.20660000  0.43321000  1
  C  C766  1  0.35760000  0.48930000  0.83710000  1
  C  C767  1  0.35760000  0.86830000  0.16290000  1
  C  C768  1  0.35070000  0.48970000  0.11813000  1
  C  C769  1  0.35070000  0.86100000  0.88187000  1
  C  C770  1  0.32420000  0.47530000  0.81130000  1
  C  C771  1  0.32420000  0.84890000  0.18870000  1
  C  C772  1  0.31940000  0.46720000  0.09613000  1
  C  C773  1  0.31940000  0.85220000  0.90387000  1
  C  C774  1  0.29010000  0.46200000  0.79230000  1
  C  C775  1  0.29010000  0.82810000  0.20770000  1
  C  C776  1  0.28250000  0.05130000  0.70597000  1
  C  C777  1  0.28250000  0.23120000  0.29403000  1
  C  C778  1  0.27680000  0.39110000  0.62393000  1
  C  C779  1  0.27680000  0.88570000  0.37607000  1
  C  C780  1  0.27390000  0.45710000  0.04473000  1
  C  C781  1  0.27390000  0.81680000  0.95527000  1
  C  C782  1  0.27260000  0.44430000  0.07693000  1
  C  C783  1  0.27260000  0.82830000  0.92307000  1
  C  C784  1  0.26630000  0.05170000  0.37297000  1
  C  C785  1  0.26630000  0.21460000  0.62703000  1
  C  C786  1  0.26530000  0.07710000  0.72941000  1
  C  C787  1  0.26530000  0.18820000  0.27059000  1
  C  C788  1  0.26510000  0.06620000  0.76181000  1
  C  C789  1  0.26510000  0.19890000  0.23819000  1
  C  C790  1  0.26070000  0.41460000  0.56933000  1
  C  C791  1  0.26070000  0.84610000  0.43067000  1
  C  C792  1  0.25320000  0.41390000  0.60223000  1
  C  C793  1  0.25320000  0.83930000  0.39777000  1
  C  C794  1  0.25290000  0.44770000  0.73901000  1
  C  C795  1  0.25290000  0.80520000  0.26099000  1
  C  C796  1  0.25060000  0.11270000  0.71946000  1
  C  C797  1  0.25060000  0.13790000  0.28054000  1
  C  C798  1  0.25020000  0.09090000  0.78425000  1
  C  C799  1  0.25020000  0.15930000  0.21575000  1
  C  C800  1  0.24930000  0.38080000  0.31170000  1
  C  C801  1  0.24930000  0.86850000  0.68830000  1
  C  C802  1  0.24640000  0.07800000  0.39401000  1
  C  C803  1  0.24640000  0.16840000  0.60599000  1
  C  C804  1  0.24610000  0.44840000  0.77191000  1
  C  C805  1  0.24610000  0.79770000  0.22809000  1
  C  C806  1  0.24030000  0.11930000  0.38361000  1
  C  C807  1  0.24030000  0.12100000  0.61639000  1
  C  C808  1  0.23560000  0.09810000  0.25813000  1
  C  C809  1  0.23560000  0.13750000  0.74187000  1
  C  C810  1  0.23540000  0.06120000  0.42562000  1
  C  C811  1  0.23540000  0.10880000  0.22570000  1
  C  C812  1  0.23540000  0.12660000  0.77430000  1
  C  C813  1  0.23540000  0.17420000  0.57438000  1
  C  C814  1  0.23530000  0.43190000  0.54893000  1
  C  C815  1  0.23530000  0.80340000  0.45107000  1
  C  C816  1  0.22870000  0.28530000  0.72227000  1
  C  C817  1  0.22870000  0.94340000  0.27773000  1
  C  C818  1  0.22750000  0.43770000  0.02763000  1
  C  C819  1  0.22750000  0.78980000  0.97237000  1
  C  C820  1  0.22570000  0.40560000  0.29070000  1
  C  C821  1  0.22570000  0.82010000  0.70930000  1
  C  C822  1  0.22500000  0.41220000  0.09193000  1
  C  C823  1  0.22500000  0.81280000  0.90807000  1
  C  C824  1  0.22310000  0.07930000  0.59519000  1
  C  C825  1  0.22310000  0.14380000  0.40481000  1
  C  C826  1  0.22020000  0.43040000  0.61472000  1
  C  C827  1  0.22020000  0.78980000  0.38528000  1
  C  C828  1  0.21840000  0.28420000  0.39247000  1
  C  C829  1  0.21840000  0.93420000  0.60753000  1
  C  C830  1  0.21820000  0.08570000  0.44681000  1
  C  C831  1  0.21820000  0.13250000  0.55319000  1
  C  C832  1  0.21630000  0.06630000  0.20273000  1
  C  C833  1  0.21630000  0.15000000  0.79727000  1
  C  C834  1  0.21420000  0.39290000  0.25860000  1
  C  C835  1  0.21420000  0.82130000  0.74140000  1
  C  C836  1  0.21210000  0.08510000  0.56359000  1
  C  C837  1  0.21210000  0.12700000  0.43641000  1
  C  C838  1  0.21020000  0.43040000  0.71861000  1
  C  C839  1  0.21020000  0.43770000  0.30570000  1
  C  C840  1  0.21020000  0.77250000  0.69430000  1
  C  C841  1  0.21020000  0.77980000  0.28139000  1
  C  C842  1  0.20230000  0.44840000  0.56142000  1
  C  C843  1  0.20230000  0.75390000  0.43858000  1
  C  C844  1  0.20130000  0.03390000  0.18253000  1
  C  C845  1  0.20130000  0.16740000  0.81747000  1
  C  C846  1  0.20010000  0.04410000  0.54043000  1
  C  C847  1  0.20010000  0.15600000  0.45957000  1
  C  C848  1  0.19660000  0.43190000  0.78440000  1
  C  C849  1  0.19660000  0.76470000  0.21560000  1
  C  C850  1  0.19480000  0.44770000  0.59432000  1
  C  C851  1  0.19480000  0.74710000  0.40568000  1
  C  C852  1  0.18720000  0.41220000  0.24140000  1
  C  C853  1  0.18720000  0.77500000  0.75860000  1
  C  C854  1  0.18480000  0.00990000  0.52043000  1
  C  C855  1  0.18480000  0.17490000  0.47957000  1
  C  C856  1  0.18400000  0.26670000  0.74459000  1
  C  C857  1  0.18400000  0.91730000  0.25541000  1
  C  C858  1  0.18320000  0.45710000  0.28860000  1
  C  C859  1  0.18320000  0.72610000  0.71140000  1
  C  C860  1  0.18240000  0.18610000  0.84067000  1
  C  C861  1  0.18240000  0.99630000  0.15933000  1
  C  C862  1  0.17990000  0.40560000  0.04263000  1
  C  C863  1  0.17990000  0.77430000  0.95737000  1
  C  C864  1  0.17870000  0.39290000  0.07473000  1
  C  C865  1  0.17870000  0.78580000  0.92527000  1
  C  C866  1  0.17640000  0.30270000  0.76177000  1
  C  C867  1  0.17640000  0.87370000  0.23823000  1
  C  C868  1  0.17190000  0.46200000  0.54103000  1
  C  C869  1  0.17190000  0.70990000  0.45897000  1
  C  C870  1  0.17170000  0.44430000  0.25640000  1
  C  C871  1  0.17170000  0.72740000  0.74360000  1
  C  C872  1  0.17150000  0.26300000  0.41367000  1
  C  C873  1  0.17150000  0.90850000  0.58633000  1
  C  C874  1  0.16860000  0.19570000  0.50217000  1
  C  C875  1  0.16860000  0.97290000  0.49783000  1
  C  C876  1  0.16790000  0.29560000  0.43627000  1
  C  C877  1  0.16790000  0.87230000  0.56373000  1
  C  C878  1  0.16340000  0.20370000  0.85867000  1
  C  C879  1  0.16340000  0.95970000  0.14133000  1
  C  C880  1  0.16070000  0.41390000  0.73110000  1
  C  C881  1  0.16070000  0.74680000  0.26890000  1
  C  C882  1  0.15390000  0.41460000  0.76400000  1
  C  C883  1  0.15390000  0.73930000  0.23600000  1
  C  C884  1  0.15370000  0.21440000  0.52177000  1
  C  C885  1  0.15370000  0.93930000  0.47823000  1
  C  C886  1  0.15260000  0.27670000  0.87751000  1
  C  C887  1  0.15260000  0.87590000  0.12249000  1
  C  C888  1  0.15120000  0.21350000  0.74947000  1
  C  C889  1  0.15120000  0.93770000  0.25053000  1
  C  C890  1  0.15110000  0.47530000  0.52203000  1
  C  C891  1  0.15110000  0.67580000  0.47797000  1
  C  C892  1  0.14950000  0.28530000  0.54947000  1
  C  C893  1  0.14950000  0.86420000  0.45053000  1
  C  C894  1  0.14780000  0.46720000  0.23720000  1
  C  C895  1  0.14780000  0.68060000  0.76280000  1
  C  C896  1  0.14150000  0.22530000  0.88067000  1
  C  C897  1  0.14150000  0.91620000  0.11933000  1
  C  C898  1  0.13900000  0.48970000  0.21520000  1
  C  C899  1  0.13900000  0.64930000  0.78480000  1
  C  C900  1  0.13580000  0.28530000  0.78387000  1
  C  C901  1  0.13580000  0.85050000  0.21613000  1
  C  C902  1  0.13170000  0.48930000  0.49623000  1
  C  C903  1  0.13170000  0.64240000  0.50377000  1
  C  C904  1  0.13150000  0.38080000  0.02163000  1
  C  C905  1  0.13150000  0.75070000  0.97837000  1
  C  C906  1  0.13130000  0.21160000  0.41054000  1
  C  C907  1  0.13130000  0.91970000  0.58946000  1
  C  C908  1  0.12900000  0.23210000  0.54453000  1
  C  C909  1  0.12900000  0.89690000  0.45547000  1
  C  C910  1  0.12820000  0.55930000  0.43133000  1
  C  C911  1  0.12820000  0.56890000  0.56867000  1
  C  C912  1  0.12770000  0.29560000  0.89707000  1
  C  C913  1  0.12770000  0.83210000  0.10293000  1
  C  C914  1  0.12630000  0.30270000  0.57157000  1
  C  C915  1  0.12630000  0.82360000  0.42843000  1
  C  C916  1  0.12410000  0.27670000  0.45583000  1
  C  C917  1  0.12410000  0.84740000  0.54417000  1
  C  C918  1  0.11430000  0.39110000  0.70940000  1
  C  C919  1  0.11430000  0.72320000  0.29060000  1
  C  C920  1  0.11260000  0.52760000  0.59007000  1
  C  C921  1  0.11260000  0.58500000  0.40993000  1
  C  C922  1  0.11060000  0.19610000  0.77167000  1
  C  C923  1  0.11060000  0.91450000  0.22833000  1
  C  C924  1  0.10920000  0.50170000  0.47793000  1
  C  C925  1  0.10920000  0.60750000  0.52207000  1
  C  C926  1  0.10530000  0.19270000  0.90327000  1
  C  C927  1  0.10530000  0.91260000  0.09673000  1
  C  C928  1  0.10410000  0.49690000  0.19660000  1
  C  C929  1  0.10410000  0.60720000  0.80340000  1
  C  C930  1  0.10310000  0.23210000  0.78881000  1
  C  C931  1  0.10310000  0.87100000  0.21119000  1
  C  C932  1  0.09820000  0.50600000  0.84960000  1
  C  C933  1  0.09820000  0.59220000  0.15040000  1
  C  C934  1  0.09210000  0.52240000  0.45233000  1
  C  C935  1  0.09210000  0.56970000  0.54767000  1
  C  C936  1  0.09150000  0.26300000  0.91967000  1
  C  C937  1  0.09150000  0.82850000  0.08033000  1
  C  C938  1  0.08750000  0.47440000  0.87640000  1
  C  C939  1  0.08750000  0.61310000  0.12360000  1
  C  C940  1  0.08740000  0.19270000  0.43007000  1
  C  C941  1  0.08740000  0.89470000  0.56993000  1
  C  C942  1  0.08640000  0.51930000  0.18220000  1
  C  C943  1  0.08640000  0.56710000  0.81780000  1
  C  C944  1  0.08550000  0.19610000  0.56167000  1
  C  C945  1  0.08550000  0.88940000  0.43833000  1
  C  C946  1  0.08380000  0.22530000  0.45267000  1
  C  C947  1  0.08380000  0.85850000  0.54733000  1
  C  C948  1  0.08270000  0.26670000  0.58875000  1
  C  C949  1  0.08270000  0.81600000  0.41125000  1
  C  C950  1  0.08030000  0.21160000  0.92280000  1
  C  C951  1  0.08030000  0.86870000  0.07720000  1
  C  C952  1  0.06820000  0.52910000  0.84310000  1
  C  C953  1  0.06820000  0.53910000  0.15690000  1
  C  C954  1  0.06580000  0.28420000  0.94087000  1
  C  C955  1  0.06580000  0.78160000  0.05913000  1
  C  C956  1  0.06230000  0.21350000  0.58387000  1
  C  C957  1  0.06230000  0.84880000  0.41613000  1
  C  C958  1  0.06100000  0.48710000  0.59027000  1
  C  C959  1  0.06100000  0.57390000  0.40973000  1
  C  C960  1  0.06070000  0.21440000  0.81157000  1
  C  C961  1  0.06070000  0.84630000  0.18843000  1
  C  C962  1  0.05660000  0.28530000  0.61107000  1
  C  C963  1  0.05660000  0.77130000  0.38893000  1
  C  C964  1  0.04680000  0.46590000  0.89680000  1
  C  C965  1  0.04680000  0.58090000  0.10320000  1
  C  C966  1  0.04540000  0.44180000  0.61307000  1
  C  C967  1  0.04540000  0.60360000  0.38693000  1
  C  C968  1  0.04050000  0.51140000  0.45213000  1
  C  C969  1  0.04050000  0.52910000  0.54787000  1
  C  C970  1  0.04030000  0.20370000  0.47467000  1
  C  C971  1  0.04030000  0.83660000  0.52533000  1
  C  C972  1  0.02890000  0.42630000  0.92240000  1
  C  C973  1  0.02890000  0.60260000  0.07760000  1
  C  C974  1  0.02740000  0.50680000  0.13650000  1
  C  C975  1  0.02740000  0.52060000  0.86350000  1
  C  C976  1  0.02710000  0.19570000  0.83117000  1
  C  C977  1  0.02710000  0.83140000  0.16883000  1
  C  C978  1  0.02500000  0.48780000  0.56927000  1
  C  C979  1  0.02500000  0.53720000  0.43073000  1
  C  C980  1  0.01670000  0.48900000  0.89030000  1
  C  C981  1  0.01670000  0.52770000  0.10970000  1
  C  C982  1  0.00370000  0.18610000  0.49267000  1
  C  C983  1  0.00370000  0.81760000  0.50733000  1
  O  O984  1  0.99730000  0.41100000  0.61707000  1
  O  O985  1  0.99730000  0.58630000  0.38293000  1
  O  O986  1  0.99570000  0.33550000  0.66353000  1
  O  O987  1  0.99570000  0.66020000  0.33647000  1
  O  O988  1  0.99420000  0.41980000  0.94000000  1
  O  O989  1  0.99420000  0.57440000  0.06000000  1
  O  O990  1  0.98150000  0.25570000  0.71867000  1
  O  O991  1  0.98150000  0.72580000  0.28133000  1
  O  O992  1  0.98110000  0.27650000  0.05062000  1
  O  O993  1  0.98110000  0.70460000  0.94938000  1
  O  O994  1  0.96270000  0.36530000  0.04823000  1
  O  O995  1  0.96270000  0.59740000  0.95177000  1
  O  O996  1  0.95920000  0.34300000  0.73970000  1
  O  O997  1  0.95920000  0.61620000  0.26030000  1
  O  O998  1  0.94200000  0.21900000  0.01018000  1
  O  O999  1  0.94200000  0.72300000  0.98982000  1
  O  O1000  1  0.94140000  0.40030000  0.00793000  1
  O  O1001  1  0.94140000  0.54110000  0.99207000  1
  O  O1002  1  0.93280000  0.20840000  0.67748000  1
  O  O1003  1  0.93280000  0.72440000  0.32252000  1
  O  O1004  1  0.92340000  0.25440000  0.94338000  1
  O  O1005  1  0.92340000  0.66900000  0.05662000  1
  O  O1006  1  0.91260000  0.25270000  0.61286000  1
  O  O1007  1  0.91260000  0.65990000  0.38714000  1
  O  O1008  1  0.90490000  0.32890000  0.69910000  1
  O  O1009  1  0.90490000  0.57600000  0.30090000  1
  O  O1010  1  0.90060000  0.31260000  0.95612000  1
  O  O1011  1  0.90060000  0.58800000  0.04388000  1
  O  O1012  1  0.89640000  0.31560000  0.62857000  1
  O  O1013  1  0.89640000  0.58080000  0.37143000  1
  O  O1014  1  0.79160000  0.06720000  0.98919000  1
  O  O1015  1  0.79160000  0.72440000  0.01081000  1
  O  O1016  1  0.78100000  0.05800000  0.65649000  1
  O  O1017  1  0.78100000  0.72300000  0.34351000  1
  O  O1018  1  0.74830000  0.76200000  0.95668000  1
  O  O1019  1  0.74830000  0.98630000  0.04332000  1
  O  O1020  1  0.74780000  0.77420000  0.28940000  1
  O  O1021  1  0.74780000  0.97360000  0.71060000  1
  O  O1022  1  0.74730000  0.08740000  0.05381000  1
  O  O1023  1  0.74730000  0.65990000  0.94619000  1
  O  O1024  1  0.74560000  0.07660000  0.72329000  1
  O  O1025  1  0.74560000  0.66900000  0.27671000  1
  O  O1026  1  0.74430000  0.01850000  0.94800000  1
  O  O1027  1  0.74430000  0.72580000  0.05200000  1
  O  O1028  1  0.72350000  0.01890000  0.61605000  1
  O  O1029  1  0.72350000  0.70460000  0.38395000  1
  O  O1030  1  0.68740000  0.09940000  0.71055000  1
  O  O1031  1  0.68740000  0.58800000  0.28945000  1
  O  O1032  1  0.68440000  0.10360000  0.03810000  1
  O  O1033  1  0.68440000  0.58080000  0.96190000  1
  O  O1034  1  0.67110000  0.09510000  0.96757000  1
  O  O1035  1  0.67110000  0.57600000  0.03243000  1
  O  O1036  1  0.66820000  0.75050000  0.27300000  1
  O  O1037  1  0.66820000  0.91770000  0.72700000  1
  O  O1038  1  0.66640000  0.74520000  0.94966000  1
  O  O1039  1  0.66640000  0.92120000  0.05034000  1
  O  O1040  1  0.66450000  0.00430000  0.00314000  1
  O  O1041  1  0.66450000  0.66020000  0.99686000  1
  O  O1042  1  0.65790000  0.66620000  0.32090000  1
  O  O1043  1  0.65790000  0.99170000  0.67910000  1
  O  O1044  1  0.65700000  0.04080000  0.92697000  1
  O  O1045  1  0.65700000  0.61620000  0.07303000  1
  O  O1046  1  0.64640000  0.73610000  0.36937000  1
  O  O1047  1  0.64640000  0.91030000  0.63063000  1
  O  O1048  1  0.63470000  0.03730000  0.61843000  1
  O  O1049  1  0.63470000  0.59740000  0.38157000  1
  O  O1050  1  0.63040000  0.70100000  0.05719000  1
  O  O1051  1  0.63040000  0.92940000  0.94281000  1
  O  O1052  1  0.60430000  0.72560000  0.01301000  1
  O  O1053  1  0.60430000  0.87870000  0.98699000  1
  O  O1054  1  0.60130000  0.73710000  0.32827000  1
  O  O1055  1  0.60130000  0.86420000  0.67173000  1
  O  O1056  1  0.59970000  0.05860000  0.65873000  1
  O  O1057  1  0.59970000  0.54110000  0.34127000  1
  O  O1058  1  0.58900000  0.00270000  0.04960000  1
  O  O1059  1  0.58900000  0.58630000  0.95040000  1
  O  O1060  1  0.58300000  0.64690000  0.26463000  1
  O  O1061  1  0.58300000  0.93610000  0.73537000  1
  O  O1062  1  0.58020000  0.00580000  0.72667000  1
  O  O1063  1  0.58020000  0.57440000  0.27333000  1
  O  O1064  1  0.56110000  0.64220000  0.95974000  1
  O  O1065  1  0.56110000  0.91890000  0.04026000  1
  O  O1066  1  0.45890000  0.05860000  0.67460000  1
  O  O1067  1  0.45890000  0.40030000  0.32540000  1
  O  O1068  1  0.42560000  0.00580000  0.60667000  1
  O  O1069  1  0.42560000  0.41980000  0.39333000  1
  O  O1070  1  0.42400000  0.09510000  0.36577000  1
  O  O1071  1  0.42400000  0.32890000  0.63423000  1
  O  O1072  1  0.41920000  0.10360000  0.29523000  1
  O  O1073  1  0.41920000  0.31560000  0.70477000  1
  O  O1074  1  0.41370000  0.00270000  0.28373000  1
  O  O1075  1  0.41370000  0.41100000  0.71627000  1
  O  O1076  1  0.41200000  0.09940000  0.62279000  1
  O  O1077  1  0.41200000  0.31260000  0.37721000  1
  O  O1078  1  0.40260000  0.03730000  0.71490000  1
  O  O1079  1  0.40260000  0.36530000  0.28510000  1
  O  O1080  1  0.38380000  0.04080000  0.40637000  1
  O  O1081  1  0.38380000  0.34300000  0.59363000  1
  O  O1082  1  0.35780000  0.43890000  0.70693000  1
  O  O1083  1  0.35780000  0.91890000  0.29307000  1
  O  O1084  1  0.35310000  0.41700000  0.40203000  1
  O  O1085  1  0.35310000  0.93610000  0.59797000  1
  O  O1086  1  0.34010000  0.08740000  0.27952000  1
  O  O1087  1  0.34010000  0.25270000  0.72048000  1
  O  O1088  1  0.33980000  0.00430000  0.33019000  1
  O  O1089  1  0.33980000  0.33550000  0.66981000  1
  O  O1090  1  0.33380000  0.34210000  0.34576000  1
  O  O1091  1  0.33380000  0.99170000  0.65424000  1
  O  O1092  1  0.33100000  0.07660000  0.61005000  1
  O  O1093  1  0.33100000  0.25440000  0.38995000  1
  O  O1094  1  0.29900000  0.36960000  0.60947000  1
  O  O1095  1  0.29900000  0.92940000  0.39053000  1
  O  O1096  1  0.29540000  0.01890000  0.71729000  1
  O  O1097  1  0.29540000  0.27650000  0.28271000  1
  O  O1098  1  0.27700000  0.05800000  0.67685000  1
  O  O1099  1  0.27700000  0.21900000  0.32315000  1
  O  O1100  1  0.27560000  0.06720000  0.34415000  1
  O  O1101  1  0.27560000  0.20840000  0.65585000  1
  O  O1102  1  0.27440000  0.39570000  0.65365000  1
  O  O1103  1  0.27440000  0.87870000  0.34635000  1
  O  O1104  1  0.27420000  0.01850000  0.38534000  1
  O  O1105  1  0.27420000  0.25570000  0.61466000  1
  O  O1106  1  0.26390000  0.35360000  0.29730000  1
  O  O1107  1  0.26390000  0.91030000  0.70270000  1
  O  O1108  1  0.26290000  0.39870000  0.33840000  1
  O  O1109  1  0.26290000  0.86420000  0.66160000  1
  O  O1110  1  0.25480000  0.33360000  0.71701000  1
  O  O1111  1  0.25480000  0.92120000  0.28299000  1
  O  O1112  1  0.24950000  0.33180000  0.39367000  1
  O  O1113  1  0.24950000  0.91770000  0.60633000  1
  O  O1114  1  0.23800000  0.25170000  0.70999000  1
  O  O1115  1  0.23800000  0.98630000  0.29001000  1
  O  O1116  1  0.22580000  0.25220000  0.37727000  1
  O  O1117  1  0.22580000  0.97360000  0.62273000  1
  O  O1118  1  0.13580000  0.39870000  0.99493000  1
  O  O1119  1  0.13580000  0.73710000  0.00507000  1
  O  O1120  1  0.12130000  0.39570000  0.67968000  1
  O  O1121  1  0.12130000  0.72560000  0.32032000  1
  O  O1122  1  0.08970000  0.35360000  0.03603000  1
  O  O1123  1  0.08970000  0.73610000  0.96397000  1
  O  O1124  1  0.08230000  0.33180000  0.93967000  1
  O  O1125  1  0.08230000  0.75050000  0.06033000  1
  O  O1126  1  0.08110000  0.43890000  0.62641000  1
  O  O1127  1  0.08110000  0.64220000  0.37359000  1
  O  O1128  1  0.07880000  0.33360000  0.61633000  1
  O  O1129  1  0.07880000  0.74520000  0.38367000  1
  O  O1130  1  0.07060000  0.36960000  0.72386000  1
  O  O1131  1  0.07060000  0.70100000  0.27614000  1
  O  O1132  1  0.06390000  0.41700000  0.93130000  1
  O  O1133  1  0.06390000  0.64690000  0.06870000  1
  O  O1134  1  0.02640000  0.25220000  0.95607000  1
  O  O1135  1  0.02640000  0.77420000  0.04393000  1
  O  O1136  1  0.01370000  0.25170000  0.62335000  1
  O  O1137  1  0.01370000  0.76200000  0.37665000  1
  O  O1138  1  0.00830000  0.34210000  0.98757000  1
  O  O1139  1  0.00830000  0.66620000  0.01243000  1
