# generated using pymatgen
data_Co2H7C15NO10
_symmetry_space_group_name_H-M   'P 1'
_cell_length_a   7.83000000
_cell_length_b   10.91200000
_cell_length_c   12.49800000
_cell_angle_alpha   106.54400000
_cell_angle_beta   96.59600000
_cell_angle_gamma   99.56200000
_symmetry_Int_Tables_number   1
_chemical_formula_structural   Co2H7C15NO10
_chemical_formula_sum   'Co4 H14 C30 N2 O20'
_cell_volume   994.44677501
_cell_formula_units_Z   2
loop_
 _symmetry_equiv_pos_site_id
 _symmetry_equiv_pos_as_xyz
  1  'x, y, z'
loop_
 _atom_site_type_symbol
 _atom_site_label
 _atom_site_symmetry_multiplicity
 _atom_site_fract_x
 _atom_site_fract_y
 _atom_site_fract_z
 _atom_site_occupancy
  Co  Co0  1  0.13785000  0.48150000  0.59827000  1
  Co  Co1  1  0.48404000  0.63443000  0.47966000  1
  Co  Co2  1  0.51596000  0.36557000  0.52034000  1
  Co  Co3  1  0.86215000  0.51850000  0.40173000  1
  H  H4  1  0.01660000  0.81720000  0.26870000  1
  H  H5  1  0.06840000  0.20350000  0.32200000  1
  H  H6  1  0.09290000  0.11760000  0.92700000  1
  H  H7  1  0.11410000  0.27030000  0.10170000  1
  H  H8  1  0.25900000  0.42580000  0.42420000  1
  H  H9  1  0.28630000  0.98400000  0.53810000  1
  H  H10  1  0.40790000  0.77280000  0.94120000  1
  H  H11  1  0.59210000  0.22720000  0.05880000  1
  H  H12  1  0.71370000  0.01600000  0.46190000  1
  H  H13  1  0.74100000  0.57420000  0.57580000  1
  H  H14  1  0.88590000  0.72970000  0.89830000  1
  H  H15  1  0.90710000  0.88240000  0.07300000  1
  H  H16  1  0.93160000  0.79650000  0.67800000  1
  H  H17  1  0.98340000  0.18280000  0.73130000  1
  C  C18  1  0.00390000  0.23120000  0.05760000  1
  C  C19  1  0.00850000  0.86090000  0.04750000  1
  C  C20  1  0.01300000  0.12730000  0.33370000  1
  C  C21  1  0.01890000  0.10520000  0.69920000  1
  C  C22  1  0.05570000  0.00880000  0.28210000  1
  C  C23  1  0.11400000  0.86940000  0.59680000  1
  C  C24  1  0.13520000  0.63430000  0.78940000  1
  C  C25  1  0.14510000  0.73400000  0.90180000  1
  C  C26  1  0.14910000  0.10210000  0.63130000  1
  C  C27  1  0.16310000  0.74290000  0.53990000  1
  C  C28  1  0.17140000  0.92090000  0.11450000  1
  C  C29  1  0.19770000  0.98530000  0.58170000  1
  C  C30  1  0.22800000  0.22700000  0.60890000  1
  C  C31  1  0.30700000  0.79450000  0.96740000  1
  C  C32  1  0.32190000  0.88750000  0.07190000  1
  C  C33  1  0.67810000  0.11250000  0.92810000  1
  C  C34  1  0.69300000  0.20550000  0.03260000  1
  C  C35  1  0.77200000  0.77300000  0.39110000  1
  C  C36  1  0.80230000  0.01470000  0.41830000  1
  C  C37  1  0.82860000  0.07910000  0.88550000  1
  C  C38  1  0.83690000  0.25710000  0.46010000  1
  C  C39  1  0.85090000  0.89790000  0.36870000  1
  C  C40  1  0.85490000  0.26600000  0.09820000  1
  C  C41  1  0.86480000  0.36570000  0.21060000  1
  C  C42  1  0.88600000  0.13060000  0.40320000  1
  C  C43  1  0.94430000  0.99120000  0.71790000  1
  C  C44  1  0.98110000  0.89480000  0.30080000  1
  C  C45  1  0.98700000  0.87270000  0.66630000  1
  C  C46  1  0.99150000  0.13910000  0.95250000  1
  C  C47  1  0.99610000  0.76880000  0.94240000  1
  N  N48  1  0.49990000  0.05390000  0.86520000  1
  N  N49  1  0.50010000  0.94610000  0.13480000  1
  O  O50  1  0.00950000  0.43750000  0.26580000  1
  O  O51  1  0.06130000  0.63640000  0.53930000  1
  O  O52  1  0.16560000  0.32570000  0.65100000  1
  O  O53  1  0.19260000  0.01220000  0.21820000  1
  O  O54  1  0.27740000  0.62260000  0.75090000  1
  O  O55  1  0.29790000  0.74710000  0.49720000  1
  O  O56  1  0.32470000  0.47300000  0.50060000  1
  O  O57  1  0.34690000  0.22100000  0.54990000  1
  O  O58  1  0.38500000  0.11150000  0.88870000  1
  O  O59  1  0.46840000  0.94640000  0.79720000  1
  O  O60  1  0.53160000  0.05360000  0.20280000  1
  O  O61  1  0.61500000  0.88850000  0.11130000  1
  O  O62  1  0.65310000  0.77900000  0.45010000  1
  O  O63  1  0.67530000  0.52700000  0.49940000  1
  O  O64  1  0.70210000  0.25290000  0.50280000  1
  O  O65  1  0.72260000  0.37740000  0.24910000  1
  O  O66  1  0.80740000  0.98780000  0.78180000  1
  O  O67  1  0.83440000  0.67430000  0.34900000  1
  O  O68  1  0.93870000  0.36360000  0.46070000  1
  O  O69  1  0.99050000  0.56250000  0.73420000  1
