# generated using pymatgen
data_Sr4H36Ru2C72N12O25
_symmetry_space_group_name_H-M   'P 1'
_cell_length_a   15.00800000
_cell_length_b   24.75000000
_cell_length_c   25.79200000
_cell_angle_alpha   111.95700000
_cell_angle_beta   90.00000000
_cell_angle_gamma   90.00000000
_symmetry_Int_Tables_number   1
_chemical_formula_structural   Sr4H36Ru2C72N12O25
_chemical_formula_sum   'Sr16 H144 Ru8 C288 N48 O100'
_cell_volume   8885.47089575
_cell_formula_units_Z   4
loop_
 _symmetry_equiv_pos_site_id
 _symmetry_equiv_pos_as_xyz
  1  'x, y, z'
loop_
 _atom_site_type_symbol
 _atom_site_label
 _atom_site_symmetry_multiplicity
 _atom_site_fract_x
 _atom_site_fract_y
 _atom_site_fract_z
 _atom_site_occupancy
  Sr  Sr0  1  0.03442000  0.20187000  0.53654000  1
  Sr  Sr1  1  0.05575000  0.98495000  0.70797000  1
  Sr  Sr2  1  0.06520000  0.04528000  0.86949000  1
  Sr  Sr3  1  0.21521000  0.76729000  0.00014000  1
  Sr  Sr4  1  0.28479000  0.26729000  0.50014000  1
  Sr  Sr5  1  0.43480000  0.54528000  0.36949000  1
  Sr  Sr6  1  0.44425000  0.48495000  0.20797000  1
  Sr  Sr7  1  0.46558000  0.70187000  0.03654000  1
  Sr  Sr8  1  0.53442000  0.29813000  0.96346000  1
  Sr  Sr9  1  0.55575000  0.51505000  0.79203000  1
  Sr  Sr10  1  0.56520000  0.45472000  0.63051000  1
  Sr  Sr11  1  0.71521000  0.73271000  0.49986000  1
  Sr  Sr12  1  0.78479000  0.23271000  0.99986000  1
  Sr  Sr13  1  0.93480000  0.95472000  0.13051000  1
  Sr  Sr14  1  0.94425000  0.01505000  0.29203000  1
  Sr  Sr15  1  0.96558000  0.79813000  0.46346000  1
  H  H16  1  0.00170000  0.48050000  0.91050000  1
  H  H17  1  0.00710000  0.48090000  0.37260000  1
  H  H18  1  0.00960000  0.34150000  0.90840000  1
  H  H19  1  0.01270000  0.35240000  0.40700000  1
  H  H20  1  0.02730000  0.43590000  0.72120000  1
  H  H21  1  0.03590000  0.57840000  0.95220000  1
  H  H22  1  0.04480000  0.70420000  0.30100000  1
  H  H23  1  0.04580000  0.62220000  0.81630000  1
  H  H24  1  0.05940000  0.40550000  0.13320000  1
  H  H25  1  0.06020000  0.42880000  0.58280000  1
  H  H26  1  0.06200000  0.26190000  0.20600000  1
  H  H27  1  0.07390000  0.16000000  0.16730000  1
  H  H28  1  0.07790000  0.80230000  0.34590000  1
  H  H29  1  0.08210000  0.16230000  0.76330000  1
  H  H30  1  0.09410000  0.53510000  0.31760000  1
  H  H31  1  0.11150000  0.84720000  0.72060000  1
  H  H32  1  0.11910000  0.68580000  0.05730000  1
  H  H33  1  0.15150000  0.34660000  0.44610000  1
  H  H34  1  0.15810000  0.06520000  0.24140000  1
  H  H35  1  0.16250000  0.72950000  0.80760000  1
  H  H36  1  0.17470000  0.30760000  0.69890000  1
  H  H37  1  0.17890000  0.98390000  0.28010000  1
  H  H38  1  0.18250000  0.19840000  0.82830000  1
  H  H39  1  0.18300000  0.79800000  0.64700000  1
  H  H40  1  0.18620000  0.59820000  0.60060000  1
  H  H41  1  0.18950000  0.82100000  0.16100000  1
  H  H42  1  0.20040000  0.84610000  0.43380000  1
  H  H43  1  0.20300000  0.22980000  0.35130000  1
  H  H44  1  0.20910000  0.39920000  0.89690000  1
  H  H45  1  0.20960000  0.99400000  0.16440000  1
  H  H46  1  0.22330000  0.13850000  0.05110000  1
  H  H47  1  0.22920000  0.87820000  0.82010000  1
  H  H48  1  0.23650000  0.14120000  0.66780000  1
  H  H49  1  0.24320000  0.09320000  0.72410000  1
  H  H50  1  0.24400000  0.55180000  0.84530000  1
  H  H51  1  0.24520000  0.40560000  0.24760000  1
  H  H52  1  0.25480000  0.90560000  0.74760000  1
  H  H53  1  0.25600000  0.05180000  0.34530000  1
  H  H54  1  0.25680000  0.59320000  0.22410000  1
  H  H55  1  0.26350000  0.64120000  0.16780000  1
  H  H56  1  0.27080000  0.37820000  0.32010000  1
  H  H57  1  0.27670000  0.63850000  0.55110000  1
  H  H58  1  0.29040000  0.49400000  0.66440000  1
  H  H59  1  0.29090000  0.89920000  0.39690000  1
  H  H60  1  0.29700000  0.72980000  0.85130000  1
  H  H61  1  0.29960000  0.34610000  0.93380000  1
  H  H62  1  0.31050000  0.32100000  0.66100000  1
  H  H63  1  0.31380000  0.09820000  0.10060000  1
  H  H64  1  0.31700000  0.29800000  0.14700000  1
  H  H65  1  0.31750000  0.69840000  0.32830000  1
  H  H66  1  0.32110000  0.48390000  0.78010000  1
  H  H67  1  0.32530000  0.80760000  0.19890000  1
  H  H68  1  0.33750000  0.22950000  0.30760000  1
  H  H69  1  0.34190000  0.56520000  0.74140000  1
  H  H70  1  0.34850000  0.84660000  0.94610000  1
  H  H71  1  0.38090000  0.18580000  0.55730000  1
  H  H72  1  0.38850000  0.34720000  0.22060000  1
  H  H73  1  0.40590000  0.03510000  0.81760000  1
  H  H74  1  0.41790000  0.66230000  0.26330000  1
  H  H75  1  0.42210000  0.30230000  0.84590000  1
  H  H76  1  0.42610000  0.66000000  0.66730000  1
  H  H77  1  0.43800000  0.76190000  0.70600000  1
  H  H78  1  0.43980000  0.92880000  0.08280000  1
  H  H79  1  0.44060000  0.90550000  0.63320000  1
  H  H80  1  0.45420000  0.12220000  0.31630000  1
  H  H81  1  0.45520000  0.20420000  0.80100000  1
  H  H82  1  0.46410000  0.07840000  0.45220000  1
  H  H83  1  0.47270000  0.93590000  0.22120000  1
  H  H84  1  0.48730000  0.85240000  0.90700000  1
  H  H85  1  0.49040000  0.84150000  0.40840000  1
  H  H86  1  0.49290000  0.98090000  0.87260000  1
  H  H87  1  0.49830000  0.98050000  0.41050000  1
  H  H88  1  0.50170000  0.01950000  0.58950000  1
  H  H89  1  0.50710000  0.01910000  0.12740000  1
  H  H90  1  0.50960000  0.15850000  0.59160000  1
  H  H91  1  0.51270000  0.14760000  0.09300000  1
  H  H92  1  0.52730000  0.06410000  0.77880000  1
  H  H93  1  0.53590000  0.92160000  0.54780000  1
  H  H94  1  0.54480000  0.79580000  0.19900000  1
  H  H95  1  0.54580000  0.87780000  0.68370000  1
  H  H96  1  0.55940000  0.09450000  0.36680000  1
  H  H97  1  0.56020000  0.07120000  0.91720000  1
  H  H98  1  0.56200000  0.23810000  0.29400000  1
  H  H99  1  0.57390000  0.34000000  0.33270000  1
  H  H100  1  0.57790000  0.69770000  0.15410000  1
  H  H101  1  0.58210000  0.33770000  0.73670000  1
  H  H102  1  0.59410000  0.96490000  0.18240000  1
  H  H103  1  0.61150000  0.65280000  0.77940000  1
  H  H104  1  0.61910000  0.81420000  0.44270000  1
  H  H105  1  0.65150000  0.15340000  0.05390000  1
  H  H106  1  0.65810000  0.43480000  0.25860000  1
  H  H107  1  0.66250000  0.77050000  0.69240000  1
  H  H108  1  0.67470000  0.19240000  0.80110000  1
  H  H109  1  0.67890000  0.51610000  0.21990000  1
  H  H110  1  0.68250000  0.30160000  0.67170000  1
  H  H111  1  0.68300000  0.70200000  0.85300000  1
  H  H112  1  0.68620000  0.90180000  0.89940000  1
  H  H113  1  0.68950000  0.67900000  0.33900000  1
  H  H114  1  0.70040000  0.65390000  0.06620000  1
  H  H115  1  0.70300000  0.27020000  0.14870000  1
  H  H116  1  0.70910000  0.10080000  0.60310000  1
  H  H117  1  0.70960000  0.50600000  0.33560000  1
  H  H118  1  0.72330000  0.36150000  0.44890000  1
  H  H119  1  0.72920000  0.62180000  0.67990000  1
  H  H120  1  0.73650000  0.35880000  0.83220000  1
  H  H121  1  0.74320000  0.40680000  0.77590000  1
  H  H122  1  0.74400000  0.94820000  0.65470000  1
  H  H123  1  0.74520000  0.09440000  0.25240000  1
  H  H124  1  0.75480000  0.59440000  0.75240000  1
  H  H125  1  0.75600000  0.44820000  0.15470000  1
  H  H126  1  0.75680000  0.90680000  0.27590000  1
  H  H127  1  0.76350000  0.85880000  0.33220000  1
  H  H128  1  0.77080000  0.12180000  0.17990000  1
  H  H129  1  0.77670000  0.86150000  0.94890000  1
  H  H130  1  0.79040000  0.00600000  0.83560000  1
  H  H131  1  0.79090000  0.60080000  0.10310000  1
  H  H132  1  0.79700000  0.77020000  0.64870000  1
  H  H133  1  0.79960000  0.15390000  0.56620000  1
  H  H134  1  0.81050000  0.17900000  0.83900000  1
  H  H135  1  0.81380000  0.40180000  0.39940000  1
  H  H136  1  0.81700000  0.20200000  0.35300000  1
  H  H137  1  0.81750000  0.80160000  0.17170000  1
  H  H138  1  0.82110000  0.01610000  0.71990000  1
  H  H139  1  0.82530000  0.69240000  0.30110000  1
  H  H140  1  0.83750000  0.27050000  0.19240000  1
  H  H141  1  0.84190000  0.93480000  0.75860000  1
  H  H142  1  0.84850000  0.65340000  0.55390000  1
  H  H143  1  0.88090000  0.31420000  0.94270000  1
  H  H144  1  0.88850000  0.15280000  0.27940000  1
  H  H145  1  0.90590000  0.46490000  0.68240000  1
  H  H146  1  0.91790000  0.83770000  0.23670000  1
  H  H147  1  0.92210000  0.19770000  0.65410000  1
  H  H148  1  0.92610000  0.84000000  0.83270000  1
  H  H149  1  0.93800000  0.73810000  0.79400000  1
  H  H150  1  0.93980000  0.57120000  0.41720000  1
  H  H151  1  0.94060000  0.59450000  0.86680000  1
  H  H152  1  0.95420000  0.37780000  0.18370000  1
  H  H153  1  0.95520000  0.29580000  0.69900000  1
  H  H154  1  0.96410000  0.42160000  0.04780000  1
  H  H155  1  0.97270000  0.56410000  0.27880000  1
  H  H156  1  0.98730000  0.64760000  0.59300000  1
  H  H157  1  0.99040000  0.65850000  0.09160000  1
  H  H158  1  0.99290000  0.51910000  0.62740000  1
  H  H159  1  0.99830000  0.51950000  0.08950000  1
  Ru  Ru160  1  0.05601000  0.64436000  0.70487000  1
  Ru  Ru161  1  0.06079000  0.37378000  0.80576000  1
  Ru  Ru162  1  0.43921000  0.87378000  0.30576000  1
  Ru  Ru163  1  0.44399000  0.14436000  0.20487000  1
  Ru  Ru164  1  0.55601000  0.85564000  0.79513000  1
  Ru  Ru165  1  0.56079000  0.12622000  0.69424000  1
  Ru  Ru166  1  0.93921000  0.62622000  0.19424000  1
  Ru  Ru167  1  0.94399000  0.35564000  0.29513000  1
  C  C168  1  0.00160000  0.83030000  0.29620000  1
  C  C169  1  0.01370000  0.38420000  0.19700000  1
  C  C170  1  0.01890000  0.73160000  0.28770000  1
  C  C171  1  0.02090000  0.85398000  0.78170000  1
  C  C172  1  0.02140000  0.89420000  0.32340000  1
  C  C173  1  0.02340000  0.91965000  0.80716000  1
  C  C174  1  0.02550000  0.23940000  0.22040000  1
  C  C175  1  0.03090000  0.57020000  0.26760000  1
  C  C176  1  0.03320000  0.17850000  0.19690000  1
  C  C177  1  0.03870000  0.79010000  0.31470000  1
  C  C178  1  0.04630000  0.65520000  0.10750000  1
  C  C179  1  0.05020000  0.49550000  0.89640000  1
  C  C180  1  0.05380000  0.51420000  0.63470000  1
  C  C181  1  0.05600000  0.18930000  0.74960000  1
  C  C182  1  0.06570000  0.35640000  0.38870000  1
  C  C183  1  0.07070000  0.55380000  0.92180000  1
  C  C184  1  0.07490000  0.24820000  0.77510000  1
  C  C185  1  0.07610000  0.82560000  0.73650000  1
  C  C186  1  0.07620000  0.40010000  0.16640000  1
  C  C187  1  0.07920000  0.76464000  0.71480000  1
  C  C188  1  0.08180000  0.91670000  0.19352000  1
  C  C189  1  0.08270000  0.14430000  0.33230000  1
  C  C190  1  0.09390000  0.46040000  0.60770000  1
  C  C191  1  0.10290000  0.55330000  0.29149000  1
  C  C192  1  0.11960000  0.38496000  0.26340000  1
  C  C193  1  0.12290000  0.67190000  0.08690000  1
  C  C194  1  0.12450000  0.60300000  0.21350000  1
  C  C195  1  0.12880000  0.62830000  0.17040000  1
  C  C196  1  0.13430000  0.37418000  0.31550000  1
  C  C197  1  0.13620000  0.73097000  0.66720000  1
  C  C198  1  0.13910000  0.27300000  0.82130000  1
  C  C199  1  0.14290000  0.57638000  0.90259000  1
  C  C200  1  0.14860000  0.35290000  0.41200000  1
  C  C201  1  0.16500000  0.40850000  0.18470000  1
  C  C202  1  0.16620000  0.64090000  0.92840000  1
  C  C203  1  0.16700000  0.48010000  0.83352000  1
  C  C204  1  0.16810000  0.14697000  0.30189000  1
  C  C205  1  0.16930000  0.90427000  0.21658000  1
  C  C206  1  0.18330000  0.45271000  0.61700000  1
  C  C207  1  0.18420000  0.84760000  0.90700000  1
  C  C208  1  0.18510000  0.55100000  0.68460000  1
  C  C209  1  0.18540000  0.72950000  0.40400000  1
  C  C210  1  0.18570000  0.40040000  0.23400000  1
  C  C211  1  0.18570000  0.75710000  0.63730000  1
  C  C212  1  0.18650000  0.63920000  0.61070000  1
  C  C213  1  0.18930000  0.56357000  0.27622000  1
  C  C214  1  0.18980000  0.23950000  0.84230000  1
  C  C215  1  0.19280000  0.53820000  0.85835000  1
  C  C216  1  0.19490000  0.09880000  0.25570000  1
  C  C217  1  0.19900000  0.58740000  0.23620000  1
  C  C218  1  0.19900000  0.69570000  0.79430000  1
  C  C219  1  0.20440000  0.35790000  0.88240000  1
  C  C220  1  0.20520000  0.66780000  0.11020000  1
  C  C221  1  0.20530000  0.34351000  0.71580000  1
  C  C222  1  0.20770000  0.25150000  0.06030000  1
  C  C223  1  0.20770000  0.94725000  0.26309000  1
  C  C224  1  0.20800000  0.64520000  0.15180000  1
  C  C225  1  0.21030000  0.18910000  0.59150000  1
  C  C226  1  0.21270000  0.43671000  0.78447000  1
  C  C227  1  0.21370000  0.85130000  0.19260000  1
  C  C228  1  0.21870000  0.37140000  0.33770000  1
  C  C229  1  0.22140000  0.19620000  0.32060000  1
  C  C230  1  0.22400000  0.60079000  0.73090000  1
  C  C231  1  0.22560000  0.35840000  0.38570000  1
  C  C232  1  0.22870000  0.39560000  0.58350000  1
  C  C233  1  0.22930000  0.04920000  0.80322000  1
  C  C234  1  0.22960000  0.49840000  0.65660000  1
  C  C235  1  0.23640000  0.42730000  0.15350000  1
  C  C236  1  0.23930000  0.72280000  0.59340000  1
  C  C237  1  0.23990000  0.66310000  0.58040000  1
  C  C238  1  0.24140000  0.82650000  0.40480000  1
  C  C239  1  0.24790000  0.76640000  0.38420000  1
  C  C240  1  0.25210000  0.26640000  0.88420000  1
  C  C241  1  0.25860000  0.32650000  0.90480000  1
  C  C242  1  0.26010000  0.16310000  0.08040000  1
  C  C243  1  0.26070000  0.22280000  0.09340000  1
  C  C244  1  0.26360000  0.92730000  0.65350000  1
  C  C245  1  0.27040000  0.99840000  0.15660000  1
  C  C246  1  0.27070000  0.54920000  0.30322000  1
  C  C247  1  0.27130000  0.89560000  0.08350000  1
  C  C248  1  0.27440000  0.85840000  0.88570000  1
  C  C249  1  0.27600000  0.10079000  0.23090000  1
  C  C250  1  0.27860000  0.69620000  0.82060000  1
  C  C251  1  0.28130000  0.87140000  0.83770000  1
  C  C252  1  0.28630000  0.35130000  0.69260000  1
  C  C253  1  0.28730000  0.93671000  0.28447000  1
  C  C254  1  0.28970000  0.68910000  0.09150000  1
  C  C255  1  0.29200000  0.14520000  0.65180000  1
  C  C256  1  0.29230000  0.44725000  0.76309000  1
  C  C257  1  0.29230000  0.75150000  0.56030000  1
  C  C258  1  0.29470000  0.84351000  0.21580000  1
  C  C259  1  0.29480000  0.16780000  0.61020000  1
  C  C260  1  0.29560000  0.85790000  0.38240000  1
  C  C261  1  0.30100000  0.08740000  0.73620000  1
  C  C262  1  0.30100000  0.19570000  0.29430000  1
  C  C263  1  0.30510000  0.59880000  0.75570000  1
  C  C264  1  0.30720000  0.03820000  0.35835000  1
  C  C265  1  0.31020000  0.73950000  0.34230000  1
  C  C266  1  0.31070000  0.06357000  0.77622000  1
  C  C267  1  0.31350000  0.13920000  0.11070000  1
  C  C268  1  0.31430000  0.25710000  0.13730000  1
  C  C269  1  0.31430000  0.90040000  0.73400000  1
  C  C270  1  0.31460000  0.22950000  0.90400000  1
  C  C271  1  0.31490000  0.05100000  0.18460000  1
  C  C272  1  0.31580000  0.34760000  0.40700000  1
  C  C273  1  0.31670000  0.95271000  0.11700000  1
  C  C274  1  0.33070000  0.40427000  0.71658000  1
  C  C275  1  0.33190000  0.64697000  0.80189000  1
  C  C276  1  0.33300000  0.98010000  0.33352000  1
  C  C277  1  0.33380000  0.14090000  0.42840000  1
  C  C278  1  0.33500000  0.90850000  0.68470000  1
  C  C279  1  0.35140000  0.85290000  0.91200000  1
  C  C280  1  0.35710000  0.07638000  0.40259000  1
  C  C281  1  0.36090000  0.77300000  0.32130000  1
  C  C282  1  0.36380000  0.23097000  0.16720000  1
  C  C283  1  0.36570000  0.87418000  0.81550000  1
  C  C284  1  0.37120000  0.12830000  0.67040000  1
  C  C285  1  0.37550000  0.10300000  0.71350000  1
  C  C286  1  0.37710000  0.17190000  0.58690000  1
  C  C287  1  0.38040000  0.88496000  0.76340000  1
  C  C288  1  0.39710000  0.05330000  0.79149000  1
  C  C289  1  0.40610000  0.96040000  0.10770000  1
  C  C290  1  0.41730000  0.64430000  0.83230000  1
  C  C291  1  0.41820000  0.41670000  0.69352000  1
  C  C292  1  0.42080000  0.26464000  0.21480000  1
  C  C293  1  0.42380000  0.90010000  0.66640000  1
  C  C294  1  0.42390000  0.32560000  0.23650000  1
  C  C295  1  0.42510000  0.74820000  0.27510000  1
  C  C296  1  0.42930000  0.05380000  0.42180000  1
  C  C297  1  0.43430000  0.85640000  0.88870000  1
  C  C298  1  0.44400000  0.68930000  0.24960000  1
  C  C299  1  0.44620000  0.01420000  0.13470000  1
  C  C300  1  0.44980000  0.99550000  0.39640000  1
  C  C301  1  0.45370000  0.15520000  0.60750000  1
  C  C302  1  0.46130000  0.29010000  0.81470000  1
  C  C303  1  0.46680000  0.67850000  0.69690000  1
  C  C304  1  0.46910000  0.07020000  0.76760000  1
  C  C305  1  0.47450000  0.73940000  0.72040000  1
  C  C306  1  0.47660000  0.41965000  0.30716000  1
  C  C307  1  0.47860000  0.39420000  0.82340000  1
  C  C308  1  0.47910000  0.35398000  0.28170000  1
  C  C309  1  0.48110000  0.23160000  0.78770000  1
  C  C310  1  0.48630000  0.88420000  0.69700000  1
  C  C311  1  0.49840000  0.33030000  0.79620000  1
  C  C312  1  0.50160000  0.66970000  0.20380000  1
  C  C313  1  0.51370000  0.11580000  0.30300000  1
  C  C314  1  0.51890000  0.76840000  0.21230000  1
  C  C315  1  0.52090000  0.64602000  0.71830000  1
  C  C316  1  0.52140000  0.60580000  0.17660000  1
  C  C317  1  0.52340000  0.58035000  0.69284000  1
  C  C318  1  0.52550000  0.26060000  0.27960000  1
  C  C319  1  0.53090000  0.92980000  0.23240000  1
  C  C320  1  0.53320000  0.32150000  0.30310000  1
  C  C321  1  0.53870000  0.70990000  0.18530000  1
  C  C322  1  0.54630000  0.84480000  0.39250000  1
  C  C323  1  0.55020000  0.00450000  0.60360000  1
  C  C324  1  0.55380000  0.98580000  0.86530000  1
  C  C325  1  0.55600000  0.31070000  0.75040000  1
  C  C326  1  0.56570000  0.14360000  0.11130000  1
  C  C327  1  0.57070000  0.94620000  0.57820000  1
  C  C328  1  0.57490000  0.25180000  0.72490000  1
  C  C329  1  0.57610000  0.67440000  0.76350000  1
  C  C330  1  0.57620000  0.09990000  0.33360000  1
  C  C331  1  0.57920000  0.73536000  0.78520000  1
  C  C332  1  0.58180000  0.58330000  0.30648000  1
  C  C333  1  0.58270000  0.35570000  0.16770000  1
  C  C334  1  0.59390000  0.03960000  0.89230000  1
  C  C335  1  0.60290000  0.94670000  0.20851000  1
  C  C336  1  0.61960000  0.11504000  0.23660000  1
  C  C337  1  0.62290000  0.82810000  0.41310000  1
  C  C338  1  0.62450000  0.89700000  0.28650000  1
  C  C339  1  0.62880000  0.87170000  0.32960000  1
  C  C340  1  0.63430000  0.12582000  0.18450000  1
  C  C341  1  0.63620000  0.76903000  0.83280000  1
  C  C342  1  0.63910000  0.22700000  0.67870000  1
  C  C343  1  0.64290000  0.92362000  0.59741000  1
  C  C344  1  0.64860000  0.14710000  0.08800000  1
  C  C345  1  0.66500000  0.09150000  0.31530000  1
  C  C346  1  0.66620000  0.85910000  0.57160000  1
  C  C347  1  0.66700000  0.01990000  0.66648000  1
  C  C348  1  0.66810000  0.35303000  0.19811000  1
  C  C349  1  0.66930000  0.59573000  0.28342000  1
  C  C350  1  0.68330000  0.04729000  0.88300000  1
  C  C351  1  0.68420000  0.65240000  0.59300000  1
  C  C352  1  0.68510000  0.94900000  0.81540000  1
  C  C353  1  0.68540000  0.77050000  0.09600000  1
  C  C354  1  0.68570000  0.09960000  0.26600000  1
  C  C355  1  0.68570000  0.74290000  0.86270000  1
  C  C356  1  0.68650000  0.86080000  0.88930000  1
  C  C357  1  0.68930000  0.93643000  0.22378000  1
  C  C358  1  0.68980000  0.26050000  0.65770000  1
  C  C359  1  0.69280000  0.96180000  0.64165000  1
  C  C360  1  0.69490000  0.40120000  0.24430000  1
  C  C361  1  0.69900000  0.80430000  0.70570000  1
  C  C362  1  0.69900000  0.91260000  0.26380000  1
  C  C363  1  0.70440000  0.14210000  0.61760000  1
  C  C364  1  0.70520000  0.83220000  0.38980000  1
  C  C365  1  0.70530000  0.15649000  0.78420000  1
  C  C366  1  0.70770000  0.24850000  0.43970000  1
  C  C367  1  0.70770000  0.55275000  0.23691000  1
  C  C368  1  0.70800000  0.85480000  0.34820000  1
  C  C369  1  0.71030000  0.31090000  0.90850000  1
  C  C370  1  0.71270000  0.06329000  0.71553000  1
  C  C371  1  0.71370000  0.64870000  0.30740000  1
  C  C372  1  0.71870000  0.12860000  0.16230000  1
  C  C373  1  0.72140000  0.30380000  0.17940000  1
  C  C374  1  0.72400000  0.89921000  0.76910000  1
  C  C375  1  0.72560000  0.14160000  0.11430000  1
  C  C376  1  0.72870000  0.10440000  0.91650000  1
  C  C377  1  0.72930000  0.45080000  0.69678000  1
  C  C378  1  0.72960000  0.00160000  0.84340000  1
  C  C379  1  0.73640000  0.07270000  0.34650000  1
  C  C380  1  0.73930000  0.77720000  0.90660000  1
  C  C381  1  0.73990000  0.83690000  0.91960000  1
  C  C382  1  0.74140000  0.67350000  0.09520000  1
  C  C383  1  0.74790000  0.73360000  0.11580000  1
  C  C384  1  0.75210000  0.23360000  0.61580000  1
  C  C385  1  0.75860000  0.17350000  0.59520000  1
  C  C386  1  0.76010000  0.33690000  0.41960000  1
  C  C387  1  0.76070000  0.27720000  0.40660000  1
  C  C388  1  0.76360000  0.57270000  0.84650000  1
  C  C389  1  0.77040000  0.50160000  0.34340000  1
  C  C390  1  0.77070000  0.95080000  0.19678000  1
  C  C391  1  0.77130000  0.60440000  0.41650000  1
  C  C392  1  0.77440000  0.64160000  0.61430000  1
  C  C393  1  0.77600000  0.39921000  0.26910000  1
  C  C394  1  0.77860000  0.80380000  0.67940000  1
  C  C395  1  0.78130000  0.62860000  0.66230000  1
  C  C396  1  0.78630000  0.14870000  0.80740000  1
  C  C397  1  0.78730000  0.56329000  0.21553000  1
  C  C398  1  0.78970000  0.81090000  0.40850000  1
  C  C399  1  0.79200000  0.35480000  0.84820000  1
  C  C400  1  0.79230000  0.05275000  0.73691000  1
  C  C401  1  0.79230000  0.74850000  0.93970000  1
  C  C402  1  0.79470000  0.65649000  0.28420000  1
  C  C403  1  0.79480000  0.33220000  0.88980000  1
  C  C404  1  0.79560000  0.64210000  0.11760000  1
  C  C405  1  0.80100000  0.30430000  0.20570000  1
  C  C406  1  0.80100000  0.41260000  0.76380000  1
  C  C407  1  0.80510000  0.90120000  0.74430000  1
  C  C408  1  0.80720000  0.46180000  0.14165000  1
  C  C409  1  0.81020000  0.76050000  0.15770000  1
  C  C410  1  0.81070000  0.43643000  0.72378000  1
  C  C411  1  0.81350000  0.36080000  0.38930000  1
  C  C412  1  0.81430000  0.24290000  0.36270000  1
  C  C413  1  0.81430000  0.59960000  0.76600000  1
  C  C414  1  0.81460000  0.27050000  0.59600000  1
  C  C415  1  0.81490000  0.44900000  0.31540000  1
  C  C416  1  0.81580000  0.15240000  0.09300000  1
  C  C417  1  0.81670000  0.54729000  0.38300000  1
  C  C418  1  0.83070000  0.09573000  0.78342000  1
  C  C419  1  0.83190000  0.85303000  0.69811000  1
  C  C420  1  0.83300000  0.51990000  0.16648000  1
  C  C421  1  0.83380000  0.35910000  0.07160000  1
  C  C422  1  0.83500000  0.59150000  0.81530000  1
  C  C423  1  0.85140000  0.64710000  0.58800000  1
  C  C424  1  0.85710000  0.42362000  0.09741000  1
  C  C425  1  0.86090000  0.72700000  0.17870000  1
  C  C426  1  0.86380000  0.26903000  0.33280000  1
  C  C427  1  0.86570000  0.62582000  0.68450000  1
  C  C428  1  0.87120000  0.37170000  0.82960000  1
  C  C429  1  0.87550000  0.39700000  0.78650000  1
  C  C430  1  0.87710000  0.32810000  0.91310000  1
  C  C431  1  0.88040000  0.61504000  0.73660000  1
  C  C432  1  0.89710000  0.44670000  0.70851000  1
  C  C433  1  0.90610000  0.53960000  0.39230000  1
  C  C434  1  0.91730000  0.85570000  0.66770000  1
  C  C435  1  0.91820000  0.08330000  0.80648000  1
  C  C436  1  0.92080000  0.23536000  0.28520000  1
  C  C437  1  0.92380000  0.59990000  0.83360000  1
  C  C438  1  0.92390000  0.17440000  0.26350000  1
  C  C439  1  0.92510000  0.75180000  0.22490000  1
  C  C440  1  0.92930000  0.44620000  0.07820000  1
  C  C441  1  0.93430000  0.64360000  0.61130000  1
  C  C442  1  0.94400000  0.81070000  0.25040000  1
  C  C443  1  0.94620000  0.48580000  0.36530000  1
  C  C444  1  0.94980000  0.50450000  0.10360000  1
  C  C445  1  0.95370000  0.34480000  0.89250000  1
  C  C446  1  0.96130000  0.20990000  0.68530000  1
  C  C447  1  0.96680000  0.82150000  0.80310000  1
  C  C448  1  0.96910000  0.42980000  0.73240000  1
  C  C449  1  0.97450000  0.76060000  0.77960000  1
  C  C450  1  0.97660000  0.08035000  0.19284000  1
  C  C451  1  0.97860000  0.10580000  0.67660000  1
  C  C452  1  0.97910000  0.14602000  0.21830000  1
  C  C453  1  0.98110000  0.26840000  0.71230000  1
  C  C454  1  0.98630000  0.61580000  0.80300000  1
  C  C455  1  0.99840000  0.16970000  0.70380000  1
  N  N456  1  0.03110000  0.73246000  0.73758000  1
  N  N457  1  0.03350000  0.37718000  0.24533000  1
  N  N458  1  0.03590000  0.28795000  0.75695000  1
  N  N459  1  0.03960000  0.59475000  0.22927000  1
  N  N460  1  0.04800000  0.63468000  0.14882000  1
  N  N461  1  0.06040000  0.36541000  0.34005000  1
  N  N462  1  0.09610000  0.45857000  0.85216000  1
  N  N463  1  0.09950000  0.56009000  0.67129000  1
  N  N464  1  0.13530000  0.67247000  0.65363000  1
  N  N465  1  0.14570000  0.33217000  0.84123000  1
  N  N466  1  0.16910000  0.38481000  0.76111000  1
  N  N467  1  0.17040000  0.64907000  0.75022000  1
  N  N468  1  0.32960000  0.14907000  0.25022000  1
  N  N469  1  0.33090000  0.88481000  0.26111000  1
  N  N470  1  0.35430000  0.83217000  0.34123000  1
  N  N471  1  0.36470000  0.17247000  0.15363000  1
  N  N472  1  0.40050000  0.06009000  0.17129000  1
  N  N473  1  0.40390000  0.95857000  0.35216000  1
  N  N474  1  0.43960000  0.86541000  0.84005000  1
  N  N475  1  0.45200000  0.13468000  0.64882000  1
  N  N476  1  0.46040000  0.09475000  0.72927000  1
  N  N477  1  0.46410000  0.78795000  0.25695000  1
  N  N478  1  0.46650000  0.87718000  0.74533000  1
  N  N479  1  0.46890000  0.23246000  0.23758000  1
  N  N480  1  0.53110000  0.76754000  0.76242000  1
  N  N481  1  0.53350000  0.12282000  0.25467000  1
  N  N482  1  0.53590000  0.21205000  0.74305000  1
  N  N483  1  0.53960000  0.90525000  0.27073000  1
  N  N484  1  0.54800000  0.86532000  0.35118000  1
  N  N485  1  0.56040000  0.13459000  0.15995000  1
  N  N486  1  0.59610000  0.04143000  0.64784000  1
  N  N487  1  0.59950000  0.93991000  0.82871000  1
  N  N488  1  0.63530000  0.82753000  0.84637000  1
  N  N489  1  0.64570000  0.16783000  0.65877000  1
  N  N490  1  0.66910000  0.11519000  0.73889000  1
  N  N491  1  0.67040000  0.85093000  0.74978000  1
  N  N492  1  0.82960000  0.35093000  0.24978000  1
  N  N493  1  0.83090000  0.61519000  0.23889000  1
  N  N494  1  0.85430000  0.66783000  0.15877000  1
  N  N495  1  0.86470000  0.32753000  0.34637000  1
  N  N496  1  0.90050000  0.43991000  0.32871000  1
  N  N497  1  0.90390000  0.54143000  0.14784000  1
  N  N498  1  0.93960000  0.63459000  0.65995000  1
  N  N499  1  0.95200000  0.36532000  0.85118000  1
  N  N500  1  0.96040000  0.40525000  0.77073000  1
  N  N501  1  0.96410000  0.71205000  0.24305000  1
  N  N502  1  0.96650000  0.62282000  0.75467000  1
  N  N503  1  0.96890000  0.26754000  0.26242000  1
  O  O504  1  0.00860000  0.07510000  0.70120000  1
  O  O505  1  0.02790000  0.05455000  0.15310000  1
  O  O506  1  0.04120000  0.87612000  0.15640000  1
  O  O507  1  0.04720000  0.09530000  0.31790000  1
  O  O508  1  0.05380000  0.19020000  0.36851000  1
  O  O509  1  0.05600000  0.96897000  0.21225000  1
  O  O510  1  0.06280000  0.91330000  0.36800000  1
  O  O511  1  0.08060000  0.94430000  0.78750000  1
  O  O512  1  0.10750000  0.67500000  0.95823000  1
  O  O513  1  0.11280000  0.75278000  0.42456000  1
  O  O514  1  0.11640000  0.25012000  0.47100000  1
  O  O515  1  0.11760000  0.86940000  0.89382000  1
  O  O516  1  0.13380000  0.22640000  0.04000000  1
  O  O517  1  0.13690000  0.17740000  0.60760000  1
  O  O518  1  0.15380000  0.05714000  0.78427000  1
  O  O519  1  0.18120000  0.35296000  0.55820000  1
  O  O520  1  0.18360000  0.81540000  0.93480000  1
  O  O521  1  0.18360000  0.92240000  0.66690000  1
  O  O522  1  0.18980000  0.89230000  0.08490000  1
  O  O523  1  0.20900000  0.67874000  0.39550000  1
  O  O524  1  0.21120000  0.44590000  0.11680000  1
  O  O525  1  0.21870000  0.21686000  0.55877000  1
  O  O526  1  0.23830000  0.29550000  0.05560000  1
  O  O527  1  0.23890000  0.03255000  0.84291000  1
  O  O528  1  0.24110000  0.65731000  0.91976000  1
  O  O529  1  0.25890000  0.15731000  0.41976000  1
  O  O530  1  0.26110000  0.53255000  0.34291000  1
  O  O531  1  0.26170000  0.79550000  0.55560000  1
  O  O532  1  0.28130000  0.71686000  0.05877000  1
  O  O533  1  0.28880000  0.94590000  0.61680000  1
  O  O534  1  0.29100000  0.17874000  0.89550000  1
  O  O535  1  0.31020000  0.39230000  0.58490000  1
  O  O536  1  0.31640000  0.31540000  0.43480000  1
  O  O537  1  0.31640000  0.42240000  0.16690000  1
  O  O538  1  0.31880000  0.85296000  0.05820000  1
  O  O539  1  0.34620000  0.55714000  0.28427000  1
  O  O540  1  0.36310000  0.67740000  0.10760000  1
  O  O541  1  0.36620000  0.72640000  0.54000000  1
  O  O542  1  0.38240000  0.36940000  0.39382000  1
  O  O543  1  0.38360000  0.75012000  0.97100000  1
  O  O544  1  0.38720000  0.25278000  0.92456000  1
  O  O545  1  0.39250000  0.17500000  0.45823000  1
  O  O546  1  0.41940000  0.44430000  0.28750000  1
  O  O547  1  0.43720000  0.41330000  0.86800000  1
  O  O548  1  0.44400000  0.46897000  0.71225000  1
  O  O549  1  0.44620000  0.69020000  0.86851000  1
  O  O550  1  0.45280000  0.59530000  0.81790000  1
  O  O551  1  0.45880000  0.37612000  0.65640000  1
  O  O552  1  0.47210000  0.55455000  0.65310000  1
  O  O553  1  0.49140000  0.57510000  0.20120000  1
  O  O554  1  0.50860000  0.42490000  0.79880000  1
  O  O555  1  0.52790000  0.44545000  0.34690000  1
  O  O556  1  0.54120000  0.62388000  0.34360000  1
  O  O557  1  0.54720000  0.40470000  0.18210000  1
  O  O558  1  0.55380000  0.30980000  0.13149000  1
  O  O559  1  0.55600000  0.53103000  0.28775000  1
  O  O560  1  0.56280000  0.58670000  0.13200000  1
  O  O561  1  0.58060000  0.55570000  0.71250000  1
  O  O562  1  0.60750000  0.82500000  0.54177000  1
  O  O563  1  0.61280000  0.74722000  0.07544000  1
  O  O564  1  0.61640000  0.24988000  0.02900000  1
  O  O565  1  0.61760000  0.63060000  0.60618000  1
  O  O566  1  0.63380000  0.27360000  0.46000000  1
  O  O567  1  0.63690000  0.32260000  0.89240000  1
  O  O568  1  0.65380000  0.44286000  0.71573000  1
  O  O569  1  0.68120000  0.14704000  0.94180000  1
  O  O570  1  0.68360000  0.57760000  0.83310000  1
  O  O571  1  0.68360000  0.68460000  0.56520000  1
  O  O572  1  0.68980000  0.60770000  0.41510000  1
  O  O573  1  0.70900000  0.82126000  0.10450000  1
  O  O574  1  0.71120000  0.05410000  0.38320000  1
  O  O575  1  0.71870000  0.28314000  0.94123000  1
  O  O576  1  0.73830000  0.20450000  0.44440000  1
  O  O577  1  0.73890000  0.46745000  0.65709000  1
  O  O578  1  0.74110000  0.84269000  0.58024000  1
  O  O579  1  0.75890000  0.34269000  0.08024000  1
  O  O580  1  0.76110000  0.96745000  0.15709000  1
  O  O581  1  0.76170000  0.70450000  0.94440000  1
  O  O582  1  0.78130000  0.78314000  0.44123000  1
  O  O583  1  0.78880000  0.55410000  0.88320000  1
  O  O584  1  0.79100000  0.32126000  0.60450000  1
  O  O585  1  0.81020000  0.10770000  0.91510000  1
  O  O586  1  0.81640000  0.07760000  0.33310000  1
  O  O587  1  0.81640000  0.18460000  0.06520000  1
  O  O588  1  0.81880000  0.64704000  0.44180000  1
  O  O589  1  0.84620000  0.94286000  0.21573000  1
  O  O590  1  0.86310000  0.82260000  0.39240000  1
  O  O591  1  0.86620000  0.77360000  0.96000000  1
  O  O592  1  0.88240000  0.13060000  0.10618000  1
  O  O593  1  0.88360000  0.74988000  0.52900000  1
  O  O594  1  0.88720000  0.24722000  0.57544000  1
  O  O595  1  0.89250000  0.32500000  0.04177000  1
  O  O596  1  0.91940000  0.05570000  0.21250000  1
  O  O597  1  0.93720000  0.08670000  0.63200000  1
  O  O598  1  0.94400000  0.03103000  0.78775000  1
  O  O599  1  0.94620000  0.80980000  0.63149000  1
  O  O600  1  0.95280000  0.90470000  0.68210000  1
  O  O601  1  0.95880000  0.12388000  0.84360000  1
  O  O602  1  0.97210000  0.94545000  0.84690000  1
  O  O603  1  0.99140000  0.92490000  0.29880000  1
