# generated using pymatgen
data_CdH7C12(NO2)3
_symmetry_space_group_name_H-M   'P 1'
_cell_length_a   7.44660000
_cell_length_b   14.38210000
_cell_length_c   20.91400000
_cell_angle_alpha   90.00000000
_cell_angle_beta   90.00000000
_cell_angle_gamma   90.00000000
_symmetry_Int_Tables_number   1
_chemical_formula_structural   CdH7C12(NO2)3
_chemical_formula_sum   'Cd4 H28 C48 N12 O24'
_cell_volume   2239.84225692
_cell_formula_units_Z   4
loop_
 _symmetry_equiv_pos_site_id
 _symmetry_equiv_pos_as_xyz
  1  'x, y, z'
loop_
 _atom_site_type_symbol
 _atom_site_label
 _atom_site_symmetry_multiplicity
 _atom_site_fract_x
 _atom_site_fract_y
 _atom_site_fract_z
 _atom_site_occupancy
  Cd  Cd0  1  0.48697000  0.89034000  0.92446000  1
  Cd  Cd1  1  0.49001000  0.11007000  0.07558000  1
  Cd  Cd2  1  0.49269000  0.60996000  0.42482000  1
  Cd  Cd3  1  0.49848000  0.38937000  0.57575000  1
  H  H4  1  0.15201000  0.03399000  0.89305000  1
  H  H5  1  0.15394000  0.76173000  0.96902000  1
  H  H6  1  0.15450000  0.97819000  0.11508000  1
  H  H7  1  0.15710000  0.23727000  0.01979000  1
  H  H8  1  0.15721000  0.47736000  0.38638000  1
  H  H9  1  0.16004000  0.73796000  0.47969000  1
  H  H10  1  0.16517000  0.52148000  0.61434000  1
  H  H11  1  0.16518000  0.26068000  0.52125000  1
  H  H12  1  0.38033000  0.79646000  0.59617000  1
  H  H13  1  0.38082000  0.05575000  0.81346000  1
  H  H14  1  0.39262000  0.13355000  0.70979000  1
  H  H15  1  0.39286000  0.94600000  0.18794000  1
  H  H16  1  0.39348000  0.44579000  0.31274000  1
  H  H17  1  0.40220000  0.36802000  0.20931000  1
  H  H18  1  0.40470000  0.86825000  0.29133000  1
  H  H19  1  0.58959000  0.70012000  0.09527000  1
  H  H20  1  0.59008000  0.63342000  0.79106000  1
  H  H21  1  0.59749000  0.20067000  0.40441000  1
  H  H22  1  0.60115000  0.55522000  0.68761000  1
  H  H23  1  0.60558000  0.29653000  0.90424000  1
  H  H24  1  0.82035000  0.76149000  0.96900000  1
  H  H25  1  0.82054000  0.03316000  0.89196000  1
  H  H26  1  0.82270000  0.97878000  0.11533000  1
  H  H27  1  0.82325000  0.23731000  0.01931000  1
  H  H28  1  0.82551000  0.47823000  0.38586000  1
  H  H29  1  0.82610000  0.73816000  0.48009000  1
  H  H30  1  0.83122000  0.26100000  0.52124000  1
  H  H31  1  0.83355000  0.52246000  0.61338000  1
  C  C32  1  0.08246000  0.97356000  0.91094000  1
  C  C33  1  0.08292000  0.82306000  0.95301000  1
  C  C34  1  0.08492000  0.03553000  0.09288000  1
  C  C35  1  0.08600000  0.17869000  0.04005000  1
  C  C36  1  0.08766000  0.53512000  0.40809000  1
  C  C37  1  0.08885000  0.67910000  0.45985000  1
  C  C38  1  0.09449000  0.31981000  0.54092000  1
  C  C39  1  0.09471000  0.46410000  0.59232000  1
  C  C40  1  0.41847000  0.80724000  0.69851000  1
  C  C41  1  0.42820000  0.76099000  0.63857000  1
  C  C42  1  0.43570000  0.12491000  0.81131000  1
  C  C43  1  0.44181000  0.87567000  0.18952000  1
  C  C44  1  0.44184000  0.17017000  0.75147000  1
  C  C45  1  0.44335000  0.37565000  0.31091000  1
  C  C46  1  0.44735000  0.33027000  0.25113000  1
  C  C47  1  0.44761000  0.83031000  0.24930000  1
  C  C48  1  0.47875000  0.76209000  0.75527000  1
  C  C49  1  0.48344000  0.80993000  0.81992000  1
  C  C50  1  0.48891000  0.87914000  0.06834000  1
  C  C51  1  0.48948000  0.12078000  0.93205000  1
  C  C52  1  0.49065000  0.66888000  0.63301000  1
  C  C53  1  0.49218000  0.83022000  0.13265000  1
  C  C54  1  0.49341000  0.16923000  0.86768000  1
  C  C55  1  0.49435000  0.62013000  0.56872000  1
  C  C56  1  0.49521000  0.37917000  0.43181000  1
  C  C57  1  0.49671000  0.33038000  0.36749000  1
  C  C58  1  0.49762000  0.18976000  0.18037000  1
  C  C59  1  0.49862000  0.68962000  0.31991000  1
  C  C60  1  0.50169000  0.30955000  0.68054000  1
  C  C61  1  0.50342000  0.73703000  0.25504000  1
  C  C62  1  0.50421000  0.23720000  0.24515000  1
  C  C63  1  0.50594000  0.26194000  0.74528000  1
  C  C64  1  0.54160000  0.67007000  0.74928000  1
  C  C65  1  0.54734000  0.73679000  0.13793000  1
  C  C66  1  0.54740000  0.62459000  0.68953000  1
  C  C67  1  0.55297000  0.23717000  0.36197000  1
  C  C68  1  0.55628000  0.69042000  0.19787000  1
  C  C69  1  0.55702000  0.26110000  0.86193000  1
  C  C70  1  0.56008000  0.19080000  0.30203000  1
  C  C71  1  0.56706000  0.30710000  0.80192000  1
  C  C72  1  0.89071000  0.97324000  0.91057000  1
  C  C73  1  0.89108000  0.82289000  0.95294000  1
  C  C74  1  0.89340000  0.03564000  0.09275000  1
  C  C75  1  0.89384000  0.17867000  0.03971000  1
  C  C76  1  0.89616000  0.53539000  0.40809000  1
  C  C77  1  0.89667000  0.67920000  0.46011000  1
  C  C78  1  0.90231000  0.32003000  0.54088000  1
  C  C79  1  0.90322000  0.46450000  0.59199000  1
  N  N80  1  0.17912000  0.89818000  0.93170000  1
  N  N81  1  0.18190000  0.10733000  0.06704000  1
  N  N82  1  0.18468000  0.60726000  0.43342000  1
  N  N83  1  0.19092000  0.39168000  0.56703000  1
  N  N84  1  0.33885000  0.89808000  0.70081000  1
  N  N85  1  0.62635000  0.59746000  0.19959000  1
  N  N86  1  0.63141000  0.09812000  0.29994000  1
  N  N87  1  0.64781000  0.39767000  0.79941000  1
  N  N88  1  0.79456000  0.89777000  0.93140000  1
  N  N89  1  0.79732000  0.10730000  0.06642000  1
  N  N90  1  0.80010000  0.60750000  0.43387000  1
  N  N91  1  0.80635000  0.39219000  0.56682000  1
  O  O92  1  0.21223000  0.91567000  0.74196000  1
  O  O93  1  0.36713000  0.95675000  0.65453000  1
  O  O94  1  0.48531000  0.76696000  0.87305000  1
  O  O95  1  0.48744000  0.89742000  0.82654000  1
  O  O96  1  0.48811000  0.03197000  0.93674000  1
  O  O97  1  0.48859000  0.83198000  0.01599000  1
  O  O98  1  0.48896000  0.96804000  0.06407000  1
  O  O99  1  0.49007000  0.23305000  0.12745000  1
  O  O100  1  0.49118000  0.16825000  0.98418000  1
  O  O101  1  0.49215000  0.66746000  0.51650000  1
  O  O102  1  0.49256000  0.73294000  0.37285000  1
  O  O103  1  0.49406000  0.46804000  0.43620000  1
  O  O104  1  0.49628000  0.53127000  0.56432000  1
  O  O105  1  0.49732000  0.10236000  0.17337000  1
  O  O106  1  0.49824000  0.33188000  0.48405000  1
  O  O107  1  0.49829000  0.60222000  0.32697000  1
  O  O108  1  0.49830000  0.39702000  0.67370000  1
  O  O109  1  0.49958000  0.26634000  0.62752000  1
  O  O110  1  0.58455000  0.53882000  0.15461000  1
  O  O111  1  0.59230000  0.03932000  0.34513000  1
  O  O112  1  0.62076000  0.45653000  0.84566000  1
  O  O113  1  0.75666000  0.57685000  0.23855000  1
  O  O114  1  0.76032000  0.07798000  0.26028000  1
  O  O115  1  0.77419000  0.41475000  0.75807000  1
