# generated using pymatgen
data_CoH34C34S2(NO3)2
_symmetry_space_group_name_H-M   'P 1'
_cell_length_a   22.61290000
_cell_length_b   22.61290000
_cell_length_c   27.69475438
_cell_angle_alpha   114.09494969
_cell_angle_beta   114.09525154
_cell_angle_gamma   90.00000000
_symmetry_Int_Tables_number   1
_chemical_formula_structural   CoH34C34S2(NO3)2
_chemical_formula_sum   'Co8 H272 C272 S16 N16 O48'
_cell_volume   11562.77901467
_cell_formula_units_Z   8
loop_
 _symmetry_equiv_pos_site_id
 _symmetry_equiv_pos_as_xyz
  1  'x, y, z'
loop_
 _atom_site_type_symbol
 _atom_site_label
 _atom_site_symmetry_multiplicity
 _atom_site_fract_x
 _atom_site_fract_y
 _atom_site_fract_z
 _atom_site_occupancy
  Co  Co0  1  0.75000000  0.19207000  1.00000000  1
  Co  Co1  1  0.19207000  0.25000000  0.50000000  1
  Co  Co2  1  0.69207000  0.25000000  0.50000000  1
  Co  Co3  1  0.25000000  0.30793000  1.00000000  1
  Co  Co4  1  0.75000000  0.69207000  0.00000000  1
  Co  Co5  1  0.30793000  0.75000000  0.50000000  1
  Co  Co6  1  0.80793000  0.75000000  0.50000000  1
  Co  Co7  1  0.25000000  0.80793000  1.00000000  1
  H  H8  1  0.97990000  0.00170000  0.05520000  1
  H  H9  1  0.58720000  0.00350000  0.47880000  1
  H  H10  1  0.95400000  0.00570000  0.62820000  1
  H  H11  1  0.69660000  0.00920000  0.04580000  1
  H  H12  1  0.44650000  0.02010000  0.44480000  1
  H  H13  1  0.10840000  0.02470000  0.52120000  1
  H  H14  1  0.06340000  0.02810000  0.46060000  1
  H  H15  1  0.07850000  0.03360000  0.94120000  1
  H  H16  1  0.14150000  0.03440000  0.48300000  1
  H  H17  1  0.19660000  0.03660000  0.04580000  1
  H  H18  1  0.87750000  0.04600000  0.87180000  1
  H  H19  1  0.28800000  0.04660000  0.47820000  1
  H  H20  1  0.28630000  0.04970000  0.36940000  1
  H  H21  1  0.65850000  0.05140000  0.51700000  1
  H  H22  1  0.42340000  0.05300000  0.99660000  1
  H  H23  1  0.47990000  0.05350000  0.05520000  1
  H  H24  1  0.07660000  0.05640000  0.00340000  1
  H  H25  1  0.24440000  0.06120000  0.91780000  1
  H  H26  1  0.93250000  0.06340000  0.96060000  1
  H  H27  1  0.80250000  0.06630000  0.95600000  1
  H  H28  1  0.60280000  0.06750000  0.53940000  1
  H  H29  1  0.80980000  0.06840000  0.52180000  1
  H  H30  1  0.94360000  0.07320000  0.49660000  1
  H  H31  1  0.00170000  0.07530000  0.55520000  1
  H  H32  1  0.84270000  0.07550000  0.48260000  1
  H  H33  1  0.44700000  0.07660000  0.50340000  1
  H  H34  1  0.40760000  0.07850000  0.44120000  1
  H  H35  1  0.71230000  0.08260000  0.80720000  1
  H  H36  1  0.04970000  0.08310000  0.86940000  1
  H  H37  1  0.50350000  0.08720000  0.97880000  1
  H  H38  1  0.31410000  0.08870000  0.45380000  1
  H  H39  1  0.42150000  0.09240000  0.05880000  1
  H  H40  1  0.36010000  0.09290000  0.51740000  1
  H  H41  1  0.08260000  0.09490000  0.30720000  1
  H  H42  1  0.56750000  0.10280000  0.03940000  1
  H  H43  1  0.99650000  0.10840000  0.02120000  1
  H  H44  1  0.15740000  0.10850000  0.31780000  1
  H  H45  1  0.69750000  0.11030000  0.04400000  1
  H  H46  1  0.67420000  0.12250000  0.62820000  1
  H  H47  1  0.86030000  0.13490000  0.54620000  1
  H  H48  1  0.96640000  0.13730000  0.55880000  1
  H  H49  1  0.08870000  0.13970000  0.95380000  1
  H  H50  1  0.40710000  0.13990000  0.98260000  1
  H  H51  1  0.94860000  0.14150000  0.98300000  1
  H  H52  1  0.25560000  0.14340000  0.08220000  1
  H  H53  1  0.96340000  0.15080000  0.45420000  1
  H  H54  1  0.06630000  0.15350000  0.45600000  1
  H  H55  1  0.09290000  0.15730000  0.01740000  1
  H  H56  1  0.70930000  0.15740000  0.81780000  1
  H  H57  1  0.55140000  0.15850000  0.01700000  1
  H  H58  1  0.10850000  0.16040000  0.81780000  1
  H  H59  1  0.24330000  0.16470000  0.92000000  1
  H  H60  1  0.85660000  0.17340000  0.41780000  1
  H  H61  1  0.62250000  0.17420000  0.12820000  1
  H  H62  1  0.75530000  0.17670000  0.42000000  1
  H  H63  1  0.91690000  0.18030000  0.63060000  1
  H  H64  1  0.41130000  0.18590000  0.04620000  1
  H  H65  1  0.04660000  0.19020000  0.97820000  1
  H  H66  1  0.50920000  0.19660000  0.54580000  1
  H  H67  1  0.61030000  0.19750000  0.54400000  1
  H  H68  1  0.65740000  0.20930000  0.31780000  1
  H  H69  1  0.45340000  0.21200000  0.02180000  1
  H  H70  1  0.58260000  0.21230000  0.30720000  1
  H  H71  1  0.45030000  0.21370000  0.13060000  1
  H  H72  1  0.09490000  0.22460000  0.80720000  1
  H  H73  1  0.25530000  0.24330000  0.42000000  1
  H  H74  1  0.35660000  0.24440000  0.41780000  1
  H  H75  1  0.25670000  0.24470000  0.08000000  1
  H  H76  1  0.67670000  0.25530000  0.92000000  1
  H  H77  1  0.43880000  0.25560000  0.58220000  1
  H  H78  1  0.33530000  0.25670000  0.58000000  1
  H  H79  1  0.78770000  0.27540000  0.19280000  1
  H  H80  1  0.81970000  0.28630000  0.86940000  1
  H  H81  1  0.77540000  0.28770000  0.69280000  1
  H  H82  1  0.93160000  0.28800000  0.97820000  1
  H  H83  1  0.83960000  0.29070000  0.68220000  1
  H  H84  1  0.56630000  0.30250000  0.45600000  1
  H  H85  1  0.46340000  0.30340000  0.45420000  1
  H  H86  1  0.56840000  0.30980000  0.02180000  1
  H  H87  1  0.86510000  0.31410000  0.95380000  1
  H  H88  1  0.78630000  0.31970000  0.36940000  1
  H  H89  1  0.83530000  0.32330000  0.58000000  1
  H  H90  1  0.99430000  0.32580000  0.87180000  1
  H  H91  1  0.93880000  0.32660000  0.58220000  1
  H  H92  1  0.82330000  0.33530000  0.08000000  1
  H  H93  1  0.79070000  0.33960000  0.18220000  1
  H  H94  1  0.03440000  0.34150000  0.98300000  1
  H  H95  1  0.39150000  0.34260000  0.18220000  1
  H  H96  1  0.57550000  0.34270000  0.98260000  1
  H  H97  1  0.11030000  0.34650000  0.54400000  1
  H  H98  1  0.00920000  0.34920000  0.54580000  1
  H  H99  1  0.67340000  0.35660000  0.91780000  1
  H  H100  1  0.46560000  0.35850000  0.01700000  1
  H  H101  1  0.92450000  0.36010000  0.01740000  1
  H  H102  1  0.63490000  0.36030000  0.04620000  1
  H  H103  1  0.90760000  0.36270000  0.44120000  1
  H  H104  1  0.81410000  0.36510000  0.45380000  1
  H  H105  1  0.54600000  0.37750000  0.37180000  1
  H  H106  1  0.15350000  0.38970000  0.95600000  1
  H  H107  1  0.33960000  0.39150000  0.68220000  1
  H  H108  1  0.47530000  0.39160000  0.97880000  1
  H  H109  1  0.02810000  0.39720000  0.96060000  1
  H  H110  1  0.27540000  0.40510000  0.69280000  1
  H  H111  1  0.34270000  0.40710000  0.48260000  1
  H  H112  1  0.86270000  0.40760000  0.94120000  1
  H  H113  1  0.36030000  0.41130000  0.54620000  1
  H  H114  1  0.02470000  0.41280000  0.02120000  1
  H  H115  1  0.68030000  0.41690000  0.13060000  1
  H  H116  1  0.40510000  0.41740000  0.19280000  1
  H  H117  1  0.46640000  0.42150000  0.55880000  1
  H  H118  1  0.44360000  0.42340000  0.49660000  1
  H  H119  1  0.86010000  0.42450000  0.51740000  1
  H  H120  1  0.94650000  0.42470000  0.44480000  1
  H  H121  1  0.94700000  0.42680000  0.50340000  1
  H  H122  1  0.78800000  0.43160000  0.47820000  1
  H  H123  1  0.56340000  0.43250000  0.46060000  1
  H  H124  1  0.34650000  0.43370000  0.04400000  1
  H  H125  1  0.47190000  0.43660000  0.03940000  1
  H  H126  1  0.82660000  0.43880000  0.08220000  1
  H  H127  1  0.57320000  0.44360000  0.99660000  1
  H  H128  1  0.92470000  0.44650000  0.94480000  1
  H  H129  1  0.92680000  0.44700000  0.00340000  1
  H  H130  1  0.64150000  0.44860000  0.48300000  1
  H  H131  1  0.41690000  0.45030000  0.63060000  1
  H  H132  1  0.30980000  0.45340000  0.52180000  1
  H  H133  1  0.50570000  0.45400000  0.12820000  1
  H  H134  1  0.65080000  0.46340000  0.95420000  1
  H  H135  1  0.15850000  0.46560000  0.51700000  1
  H  H136  1  0.63730000  0.46640000  0.05880000  1
  H  H137  1  0.10280000  0.47190000  0.53940000  1
  H  H138  1  0.08720000  0.47530000  0.47880000  1
  H  H139  1  0.50170000  0.47990000  0.55520000  1
  H  H140  1  0.15080000  0.49080000  0.95420000  1
  H  H141  1  0.82580000  0.49430000  0.37180000  1
  H  H142  1  0.60840000  0.49650000  0.52120000  1
  H  H143  1  0.42470000  0.49830000  0.94480000  1
  H  H144  1  0.57530000  0.50170000  0.05520000  1
  H  H145  1  0.39160000  0.50350000  0.47880000  1
  H  H146  1  0.17420000  0.50570000  0.62820000  1
  H  H147  1  0.84920000  0.50920000  0.04580000  1
  H  H148  1  0.49830000  0.52010000  0.44480000  1
  H  H149  1  0.91280000  0.52470000  0.52120000  1
  H  H150  1  0.89720000  0.52810000  0.46060000  1
  H  H151  1  0.36270000  0.53360000  0.94120000  1
  H  H152  1  0.84150000  0.53440000  0.48300000  1
  H  H153  1  0.34920000  0.53660000  0.04580000  1
  H  H154  1  0.49430000  0.54600000  0.87180000  1
  H  H155  1  0.69020000  0.54660000  0.47820000  1
  H  H156  1  0.58310000  0.54970000  0.36940000  1
  H  H157  1  0.35850000  0.55140000  0.51700000  1
  H  H158  1  0.07320000  0.55300000  0.99660000  1
  H  H159  1  0.07530000  0.55350000  0.05520000  1
  H  H160  1  0.42680000  0.55640000  0.00340000  1
  H  H161  1  0.17340000  0.56120000  0.91780000  1
  H  H162  1  0.52810000  0.56340000  0.96060000  1
  H  H163  1  0.65350000  0.56630000  0.95600000  1
  H  H164  1  0.43660000  0.56750000  0.53940000  1
  H  H165  1  0.21200000  0.56840000  0.52180000  1
  H  H166  1  0.05300000  0.57320000  0.49660000  1
  H  H167  1  0.05350000  0.57530000  0.55520000  1
  H  H168  1  0.13990000  0.57550000  0.48260000  1
  H  H169  1  0.55640000  0.57660000  0.50340000  1
  H  H170  1  0.53360000  0.57850000  0.44120000  1
  H  H171  1  0.59490000  0.58260000  0.80720000  1
  H  H172  1  0.31970000  0.58310000  0.86940000  1
  H  H173  1  0.97530000  0.58720000  0.97880000  1
  H  H174  1  0.63970000  0.58870000  0.45380000  1
  H  H175  1  0.13730000  0.59240000  0.05880000  1
  H  H176  1  0.65730000  0.59290000  0.51740000  1
  H  H177  1  0.72460000  0.59490000  0.30720000  1
  H  H178  1  0.97190000  0.60280000  0.03940000  1
  H  H179  1  0.52470000  0.60840000  0.02120000  1
  H  H180  1  0.66040000  0.60850000  0.31780000  1
  H  H181  1  0.84650000  0.61030000  0.04400000  1
  H  H182  1  0.45400000  0.62250000  0.62820000  1
  H  H183  1  0.18590000  0.63490000  0.54620000  1
  H  H184  1  0.09240000  0.63730000  0.55880000  1
  H  H185  1  0.36510000  0.63970000  0.95380000  1
  H  H186  1  0.07550000  0.63990000  0.98260000  1
  H  H187  1  0.53440000  0.64150000  0.98300000  1
  H  H188  1  0.32660000  0.64340000  0.08220000  1
  H  H189  1  0.99080000  0.65080000  0.45420000  1
  H  H190  1  0.88970000  0.65350000  0.45600000  1
  H  H191  1  0.42450000  0.65730000  0.01740000  1
  H  H192  1  0.60850000  0.65740000  0.81780000  1
  H  H193  1  0.96560000  0.65850000  0.01700000  1
  H  H194  1  0.20930000  0.66040000  0.81780000  1
  H  H195  1  0.17670000  0.66470000  0.92000000  1
  H  H196  1  0.06120000  0.67340000  0.41780000  1
  H  H197  1  0.00570000  0.67420000  0.12820000  1
  H  H198  1  0.16470000  0.67670000  0.42000000  1
  H  H199  1  0.21370000  0.68030000  0.63060000  1
  H  H200  1  0.13490000  0.68590000  0.04620000  1
  H  H201  1  0.43160000  0.69020000  0.97820000  1
  H  H202  1  0.53660000  0.69660000  0.54580000  1
  H  H203  1  0.43370000  0.69750000  0.54400000  1
  H  H204  1  0.16040000  0.70930000  0.31780000  1
  H  H205  1  0.06840000  0.71200000  0.02180000  1
  H  H206  1  0.22460000  0.71230000  0.30720000  1
  H  H207  1  0.18030000  0.71370000  0.13060000  1
  H  H208  1  0.21230000  0.72460000  0.80720000  1
  H  H209  1  0.66470000  0.74330000  0.42000000  1
  H  H210  1  0.56120000  0.74440000  0.41780000  1
  H  H211  1  0.32330000  0.74470000  0.08000000  1
  H  H212  1  0.74330000  0.75530000  0.92000000  1
  H  H213  1  0.64340000  0.75560000  0.58220000  1
  H  H214  1  0.74470000  0.75670000  0.58000000  1
  H  H215  1  0.90510000  0.77540000  0.19280000  1
  H  H216  1  0.54970000  0.78630000  0.86940000  1
  H  H217  1  0.41740000  0.78770000  0.69280000  1
  H  H218  1  0.54660000  0.78800000  0.97820000  1
  H  H219  1  0.34260000  0.79070000  0.68220000  1
  H  H220  1  0.38970000  0.80250000  0.45600000  1
  H  H221  1  0.49080000  0.80340000  0.45420000  1
  H  H222  1  0.95340000  0.80980000  0.02180000  1
  H  H223  1  0.58870000  0.81410000  0.95380000  1
  H  H224  1  0.08310000  0.81970000  0.36940000  1
  H  H225  1  0.24470000  0.82330000  0.58000000  1
  H  H226  1  0.37750000  0.82580000  0.87180000  1
  H  H227  1  0.14340000  0.82660000  0.58220000  1
  H  H228  1  0.75670000  0.83530000  0.08000000  1
  H  H229  1  0.89150000  0.83960000  0.18220000  1
  H  H230  1  0.44860000  0.84150000  0.98300000  1
  H  H231  1  0.29070000  0.84260000  0.18220000  1
  H  H232  1  0.90710000  0.84270000  0.98260000  1
  H  H233  1  0.93370000  0.84650000  0.54400000  1
  H  H234  1  0.03660000  0.84920000  0.54580000  1
  H  H235  1  0.74440000  0.85660000  0.91780000  1
  H  H236  1  0.05140000  0.85850000  0.01700000  1
  H  H237  1  0.59290000  0.86010000  0.01740000  1
  H  H238  1  0.91130000  0.86030000  0.04620000  1
  H  H239  1  0.03360000  0.86270000  0.44120000  1
  H  H240  1  0.13970000  0.86510000  0.45380000  1
  H  H241  1  0.32580000  0.87750000  0.37180000  1
  H  H242  1  0.30250000  0.88970000  0.95600000  1
  H  H243  1  0.84260000  0.89150000  0.68220000  1
  H  H244  1  0.00350000  0.89160000  0.97880000  1
  H  H245  1  0.43250000  0.89720000  0.96060000  1
  H  H246  1  0.91740000  0.90510000  0.69280000  1
  H  H247  1  0.63990000  0.90710000  0.48260000  1
  H  H248  1  0.57850000  0.90760000  0.94120000  1
  H  H249  1  0.68590000  0.91130000  0.54620000  1
  H  H250  1  0.49650000  0.91280000  0.02120000  1
  H  H251  1  0.95030000  0.91690000  0.13060000  1
  H  H252  1  0.28770000  0.91740000  0.19280000  1
  H  H253  1  0.59240000  0.92150000  0.55880000  1
  H  H254  1  0.55300000  0.92340000  0.49660000  1
  H  H255  1  0.15730000  0.92450000  0.51740000  1
  H  H256  1  0.99830000  0.92470000  0.44480000  1
  H  H257  1  0.05640000  0.92680000  0.50340000  1
  H  H258  1  0.19020000  0.93160000  0.47820000  1
  H  H259  1  0.39720000  0.93250000  0.46060000  1
  H  H260  1  0.19750000  0.93370000  0.04400000  1
  H  H261  1  0.06750000  0.93660000  0.03940000  1
  H  H262  1  0.75560000  0.93880000  0.08220000  1
  H  H263  1  0.92340000  0.94360000  0.99660000  1
  H  H264  1  0.52010000  0.94650000  0.94480000  1
  H  H265  1  0.57660000  0.94700000  0.00340000  1
  H  H266  1  0.34150000  0.94860000  0.48300000  1
  H  H267  1  0.71370000  0.95030000  0.63060000  1
  H  H268  1  0.71200000  0.95340000  0.52180000  1
  H  H269  1  0.12250000  0.95400000  0.12820000  1
  H  H270  1  0.80340000  0.96340000  0.95420000  1
  H  H271  1  0.85850000  0.96560000  0.51700000  1
  H  H272  1  0.92150000  0.96640000  0.05880000  1
  H  H273  1  0.93660000  0.97190000  0.53940000  1
  H  H274  1  0.89160000  0.97530000  0.47880000  1
  H  H275  1  0.55350000  0.97990000  0.55520000  1
  H  H276  1  0.30340000  0.99080000  0.95420000  1
  H  H277  1  0.04600000  0.99430000  0.37180000  1
  H  H278  1  0.41280000  0.99650000  0.52120000  1
  H  H279  1  0.02010000  0.99830000  0.94480000  1
  C  C280  1  0.28446000  0.00377000  0.34908000  1
  C  C281  1  0.35579000  0.00676000  0.44886000  1
  C  C282  1  0.21869000  0.00695000  0.02674000  1
  C  C283  1  0.90451000  0.01120000  0.75718000  1
  C  C284  1  0.10230000  0.01300000  0.48100000  1
  C  C285  1  0.86919000  0.01549000  0.78904000  1
  C  C286  1  0.71869000  0.01979000  0.02674000  1
  C  C287  1  0.25000000  0.02495000  1.00000000  1
  C  C288  1  0.74979000  0.02778000  0.71224000  1
  C  C289  1  0.68413000  0.02976000  0.61864000  1
  C  C290  1  0.62130000  0.03200000  0.51900000  1
  C  C291  1  0.97222000  0.03755000  0.78776000  1
  C  C292  1  0.04954000  0.04024000  0.96068000  1
  C  C293  1  0.90220000  0.04282000  0.85046000  1
  C  C294  1  0.42044000  0.04954000  0.46068000  1
  C  C295  1  0.95718000  0.05174000  0.64954000  1
  C  C296  1  0.78034000  0.05438000  0.97436000  1
  C  C297  1  0.90693000  0.05790000  0.55114000  1
  C  C298  1  0.32694000  0.06374000  0.47708000  1
  C  C299  1  0.00377000  0.06462000  0.84908000  1
  C  C300  1  0.97024000  0.06549000  0.88136000  1
  C  C301  1  0.45046000  0.07956000  0.03932000  1
  C  C302  1  0.71966000  0.08002000  0.02564000  1
  C  C303  1  0.98451000  0.08015000  0.71096000  1
  C  C304  1  0.84986000  0.08666000  0.52292000  1
  C  C305  1  0.12752000  0.08744000  0.32680000  1
  C  C306  1  0.95976000  0.08886000  0.53932000  1
  C  C307  1  0.93451000  0.08888000  0.61864000  1
  C  C308  1  0.25000000  0.09062000  1.00000000  1
  C  C309  1  0.00676000  0.09307000  0.94886000  1
  C  C310  1  0.75402000  0.09549000  0.74282000  1
  C  C311  1  0.69236000  0.09780000  0.64954000  1
  C  C312  1  0.24656000  0.09814000  0.95172000  1
  C  C313  1  0.96800000  0.10230000  0.98100000  1
  C  C314  1  0.15052000  0.11926000  0.39246000  1
  C  C315  1  0.53200000  0.12130000  0.01900000  1
  C  C316  1  0.73936000  0.12752000  0.82680000  1
  C  C317  1  0.72645000  0.13081000  0.71096000  1
  C  C318  1  0.49324000  0.14421000  0.05114000  1
  C  C319  1  0.25344000  0.14642000  0.04828000  1
  C  C320  1  0.98880000  0.14733000  0.74282000  1
  C  C321  1  0.06374000  0.15014000  0.97708000  1
  C  C322  1  0.77320000  0.15052000  0.89246000  1
  C  C323  1  0.93538000  0.15469000  0.65092000  1
  C  C324  1  0.24628000  0.16012000  0.95354000  1
  C  C325  1  0.43626000  0.17306000  0.02292000  1
  C  C326  1  0.52976000  0.18413000  0.11864000  1
  C  C327  1  0.96245000  0.18446000  0.71224000  1
  C  C328  1  0.99305000  0.19195000  0.47326000  1
  C  C329  1  0.59780000  0.19236000  0.14954000  1
  C  C330  1  0.05438000  0.19402000  0.47436000  1
  C  C331  1  0.08744000  0.19928000  0.82680000  1
  C  C332  1  0.85358000  0.20516000  0.45172000  1
  C  C333  1  0.25372000  0.20658000  0.04646000  1
  C  C334  1  0.79342000  0.20726000  0.45354000  1
  C  C335  1  0.49623000  0.21554000  0.15092000  1
  C  C336  1  0.51979000  0.21869000  0.52674000  1
  C  C337  1  0.58002000  0.21966000  0.52564000  1
  C  C338  1  0.63081000  0.22645000  0.21096000  1
  C  C339  1  0.75806000  0.22680000  0.60754000  1
  C  C340  1  0.62752000  0.23936000  0.32680000  1
  C  C341  1  0.11926000  0.24194000  0.89246000  1
  C  C342  1  0.85267000  0.24598000  0.75718000  1
  C  C343  1  0.29342000  0.24628000  0.45354000  1
  C  C344  1  0.35358000  0.24656000  0.45172000  1
  C  C345  1  0.52778000  0.24979000  0.21224000  1
  C  C346  1  0.47505000  0.25000000  0.50000000  1
  C  C347  1  0.40938000  0.25000000  0.50000000  1
  C  C348  1  0.97505000  0.25000000  0.50000000  1
  C  C349  1  0.90938000  0.25000000  0.50000000  1
  C  C350  1  0.81554000  0.25021000  0.78776000  1
  C  C351  1  0.40186000  0.25344000  0.54828000  1
  C  C352  1  0.33988000  0.25372000  0.54646000  1
  C  C353  1  0.59549000  0.25402000  0.24282000  1
  C  C354  1  0.72680000  0.25806000  0.10754000  1
  C  C355  1  0.80072000  0.26064000  0.67320000  1
  C  C356  1  0.65052000  0.27320000  0.39246000  1
  C  C357  1  0.91985000  0.27355000  0.78904000  1
  C  C358  1  0.55438000  0.28034000  0.47436000  1
  C  C359  1  0.49305000  0.28131000  0.47326000  1
  C  C360  1  0.84531000  0.28446000  0.84908000  1
  C  C361  1  0.83988000  0.29274000  0.54646000  1
  C  C362  1  0.70726000  0.29342000  0.95354000  1
  C  C363  1  0.90186000  0.29484000  0.54828000  1
  C  C364  1  0.76064000  0.30072000  0.17320000  1
  C  C365  1  0.08002000  0.30598000  0.52564000  1
  C  C366  1  0.94826000  0.30764000  0.85046000  1
  C  C367  1  0.01979000  0.30805000  0.52674000  1
  C  C368  1  0.75021000  0.31554000  0.28776000  1
  C  C369  1  0.91112000  0.31587000  0.88136000  1
  C  C370  1  0.91334000  0.32694000  0.97708000  1
  C  C371  1  0.79274000  0.33988000  0.04646000  1
  C  C372  1  0.78446000  0.34531000  0.34908000  1
  C  C373  1  0.38074000  0.34948000  0.10754000  1
  C  C374  1  0.58666000  0.34986000  0.02292000  1
  C  C375  1  0.74598000  0.35267000  0.25718000  1
  C  C376  1  0.70516000  0.35358000  0.95172000  1
  C  C377  1  0.94210000  0.35579000  0.94886000  1
  C  C378  1  0.51549000  0.36919000  0.28904000  1
  C  C379  1  0.41256000  0.37248000  0.17320000  1
  C  C380  1  0.01300000  0.37870000  0.98100000  1
  C  C381  1  0.25806000  0.38074000  0.60754000  1
  C  C382  1  0.48700000  0.39770000  0.01900000  1
  C  C383  1  0.79484000  0.40186000  0.04828000  1
  C  C384  1  0.54282000  0.40220000  0.35046000  1
  C  C385  1  0.51120000  0.40451000  0.25718000  1
  C  C386  1  0.55790000  0.40693000  0.05114000  1
  C  C387  1  0.75000000  0.40938000  1.00000000  1
  C  C388  1  0.81587000  0.41112000  0.38136000  1
  C  C389  1  0.92044000  0.41114000  0.46068000  1
  C  C390  1  0.30072000  0.41256000  0.67320000  1
  C  C391  1  0.82694000  0.41334000  0.47708000  1
  C  C392  1  0.77355000  0.41985000  0.28904000  1
  C  C393  1  0.19402000  0.41998000  0.97436000  1
  C  C394  1  0.91114000  0.42044000  0.96068000  1
  C  C395  1  0.58888000  0.43451000  0.11864000  1
  C  C396  1  0.65469000  0.43538000  0.15092000  1
  C  C397  1  0.34986000  0.43626000  0.52292000  1
  C  C398  1  0.85579000  0.44210000  0.44886000  1
  C  C399  1  0.30598000  0.44562000  0.02564000  1
  C  C400  1  0.80764000  0.44826000  0.35046000  1
  C  C401  1  0.45976000  0.45046000  0.53932000  1
  C  C402  1  0.55174000  0.45718000  0.14954000  1
  C  C403  1  0.58886000  0.45976000  0.03932000  1
  C  C404  1  0.68446000  0.46245000  0.21224000  1
  C  C405  1  0.60230000  0.46800000  0.48100000  1
  C  C406  1  0.56549000  0.47024000  0.38136000  1
  C  C407  1  0.53755000  0.47222000  0.28776000  1
  C  C408  1  0.75000000  0.47505000  0.00000000  1
  C  C409  1  0.19195000  0.48021000  0.97326000  1
  C  C410  1  0.58015000  0.48451000  0.21096000  1
  C  C411  1  0.12130000  0.48700000  0.51900000  1
  C  C412  1  0.64733000  0.48880000  0.24282000  1
  C  C413  1  0.69195000  0.49305000  0.97326000  1
  C  C414  1  0.40693000  0.49324000  0.55114000  1
  C  C415  1  0.43538000  0.49623000  0.65092000  1
  C  C416  1  0.56462000  0.50377000  0.34908000  1
  C  C417  1  0.59307000  0.50676000  0.44886000  1
  C  C418  1  0.30805000  0.50695000  0.02674000  1
  C  C419  1  0.35267000  0.51120000  0.75718000  1
  C  C420  1  0.87870000  0.51300000  0.48100000  1
  C  C421  1  0.41985000  0.51549000  0.78904000  1
  C  C422  1  0.80805000  0.51979000  0.02674000  1
  C  C423  1  0.25000000  0.52495000  1.00000000  1
  C  C424  1  0.46245000  0.52778000  0.71224000  1
  C  C425  1  0.43451000  0.52976000  0.61864000  1
  C  C426  1  0.39770000  0.53200000  0.51900000  1
  C  C427  1  0.31554000  0.53755000  0.78776000  1
  C  C428  1  0.41114000  0.54024000  0.96068000  1
  C  C429  1  0.44826000  0.54282000  0.85046000  1
  C  C430  1  0.54024000  0.54954000  0.46068000  1
  C  C431  1  0.19236000  0.55174000  0.64954000  1
  C  C432  1  0.69402000  0.55438000  0.97436000  1
  C  C433  1  0.14421000  0.55790000  0.55114000  1
  C  C434  1  0.65014000  0.56374000  0.47708000  1
  C  C435  1  0.34531000  0.56462000  0.84908000  1
  C  C436  1  0.41112000  0.56549000  0.88136000  1
  C  C437  1  0.08886000  0.57956000  0.03932000  1
  C  C438  1  0.80598000  0.58002000  0.02564000  1
  C  C439  1  0.22645000  0.58015000  0.71096000  1
  C  C440  1  0.17306000  0.58666000  0.52292000  1
  C  C441  1  0.69928000  0.58744000  0.32680000  1
  C  C442  1  0.07956000  0.58886000  0.53932000  1
  C  C443  1  0.18413000  0.58888000  0.61864000  1
  C  C444  1  0.25000000  0.59062000  0.00000000  1
  C  C445  1  0.44210000  0.59307000  0.94886000  1
  C  C446  1  0.48880000  0.59549000  0.74282000  1
  C  C447  1  0.45718000  0.59780000  0.64954000  1
  C  C448  1  0.20516000  0.59814000  0.95172000  1
  C  C449  1  0.51300000  0.60230000  0.98100000  1
  C  C450  1  0.74194000  0.61926000  0.39246000  1
  C  C451  1  0.98700000  0.62130000  0.01900000  1
  C  C452  1  0.58744000  0.62752000  0.82680000  1
  C  C453  1  0.48451000  0.63081000  0.71096000  1
  C  C454  1  0.05790000  0.64421000  0.05114000  1
  C  C455  1  0.29484000  0.64642000  0.04828000  1
  C  C456  1  0.25402000  0.64733000  0.74282000  1
  C  C457  1  0.41334000  0.65014000  0.97708000  1
  C  C458  1  0.61926000  0.65052000  0.89246000  1
  C  C459  1  0.21554000  0.65469000  0.65092000  1
  C  C460  1  0.20726000  0.66012000  0.95354000  1
  C  C461  1  0.08666000  0.67306000  0.02292000  1
  C  C462  1  0.08888000  0.68413000  0.11864000  1
  C  C463  1  0.24979000  0.68446000  0.71224000  1
  C  C464  1  0.98021000  0.69195000  0.47326000  1
  C  C465  1  0.05174000  0.69236000  0.14954000  1
  C  C466  1  0.91998000  0.69402000  0.47436000  1
  C  C467  1  0.23936000  0.69928000  0.82680000  1
  C  C468  1  0.09814000  0.70516000  0.45172000  1
  C  C469  1  0.29274000  0.70658000  0.04646000  1
  C  C470  1  0.16012000  0.70726000  0.45354000  1
  C  C471  1  0.15469000  0.71554000  0.15092000  1
  C  C472  1  0.50695000  0.71869000  0.52674000  1
  C  C473  1  0.44562000  0.71966000  0.52564000  1
  C  C474  1  0.08015000  0.72645000  0.21096000  1
  C  C475  1  0.34948000  0.72680000  0.60754000  1
  C  C476  1  0.19928000  0.73936000  0.32680000  1
  C  C477  1  0.27320000  0.74194000  0.89246000  1
  C  C478  1  0.40451000  0.74598000  0.75718000  1
  C  C479  1  0.66012000  0.74628000  0.45354000  1
  C  C480  1  0.59814000  0.74656000  0.45172000  1
  C  C481  1  0.18446000  0.74979000  0.21224000  1
  C  C482  1  0.09062000  0.75000000  0.50000000  1
  C  C483  1  0.02495000  0.75000000  0.50000000  1
  C  C484  1  0.59062000  0.75000000  0.50000000  1
  C  C485  1  0.52495000  0.75000000  0.50000000  1
  C  C486  1  0.47222000  0.75021000  0.78776000  1
  C  C487  1  0.64642000  0.75344000  0.54828000  1
  C  C488  1  0.70658000  0.75372000  0.54646000  1
  C  C489  1  0.14733000  0.75402000  0.24282000  1
  C  C490  1  0.88074000  0.75806000  0.10754000  1
  C  C491  1  0.37248000  0.76064000  0.67320000  1
  C  C492  1  0.24194000  0.77320000  0.39246000  1
  C  C493  1  0.36919000  0.77355000  0.78904000  1
  C  C494  1  0.41998000  0.78034000  0.47436000  1
  C  C495  1  0.48021000  0.78131000  0.47326000  1
  C  C496  1  0.50377000  0.78446000  0.84908000  1
  C  C497  1  0.20658000  0.79274000  0.54646000  1
  C  C498  1  0.74628000  0.79342000  0.95354000  1
  C  C499  1  0.14642000  0.79484000  0.54828000  1
  C  C500  1  0.91256000  0.80072000  0.17320000  1
  C  C501  1  0.94562000  0.80598000  0.52564000  1
  C  C502  1  0.40220000  0.80764000  0.85046000  1
  C  C503  1  0.00695000  0.80805000  0.52674000  1
  C  C504  1  0.03755000  0.81554000  0.28776000  1
  C  C505  1  0.47024000  0.81587000  0.88136000  1
  C  C506  1  0.56374000  0.82694000  0.97708000  1
  C  C507  1  0.75372000  0.83988000  0.04646000  1
  C  C508  1  0.06462000  0.84531000  0.34908000  1
  C  C509  1  0.22680000  0.84948000  0.10754000  1
  C  C510  1  0.93626000  0.84986000  0.02292000  1
  C  C511  1  0.01120000  0.85267000  0.25718000  1
  C  C512  1  0.74656000  0.85358000  0.95172000  1
  C  C513  1  0.50676000  0.85579000  0.94886000  1
  C  C514  1  0.27355000  0.86919000  0.28904000  1
  C  C515  1  0.26064000  0.87248000  0.17320000  1
  C  C516  1  0.46800000  0.87870000  0.98100000  1
  C  C517  1  0.84948000  0.88074000  0.60754000  1
  C  C518  1  0.03200000  0.89770000  0.01900000  1
  C  C519  1  0.75344000  0.90186000  0.04828000  1
  C  C520  1  0.30764000  0.90220000  0.35046000  1
  C  C521  1  0.24598000  0.90451000  0.25718000  1
  C  C522  1  0.99324000  0.90693000  0.05114000  1
  C  C523  1  0.75000000  0.90938000  1.00000000  1
  C  C524  1  0.06549000  0.91112000  0.38136000  1
  C  C525  1  0.04024000  0.91114000  0.46068000  1
  C  C526  1  0.87248000  0.91256000  0.67320000  1
  C  C527  1  0.15014000  0.91334000  0.47708000  1
  C  C528  1  0.01549000  0.91985000  0.28904000  1
  C  C529  1  0.28034000  0.91998000  0.97436000  1
  C  C530  1  0.54954000  0.92044000  0.96068000  1
  C  C531  1  0.02976000  0.93451000  0.11864000  1
  C  C532  1  0.99623000  0.93538000  0.15092000  1
  C  C533  1  0.67306000  0.93626000  0.52292000  1
  C  C534  1  0.09307000  0.94210000  0.44886000  1
  C  C535  1  0.21966000  0.94562000  0.02564000  1
  C  C536  1  0.04282000  0.94826000  0.35046000  1
  C  C537  1  0.57956000  0.95046000  0.53932000  1
  C  C538  1  0.09780000  0.95718000  0.14954000  1
  C  C539  1  0.95046000  0.95976000  0.03932000  1
  C  C540  1  0.02778000  0.96245000  0.21224000  1
  C  C541  1  0.37870000  0.96800000  0.48100000  1
  C  C542  1  0.31587000  0.97024000  0.38136000  1
  C  C543  1  0.25021000  0.97222000  0.28776000  1
  C  C544  1  0.75000000  0.97505000  1.00000000  1
  C  C545  1  0.28131000  0.98021000  0.97326000  1
  C  C546  1  0.13081000  0.98451000  0.21096000  1
  C  C547  1  0.89770000  0.98700000  0.51900000  1
  C  C548  1  0.09549000  0.98880000  0.24282000  1
  C  C549  1  0.78131000  0.99305000  0.97326000  1
  C  C550  1  0.64421000  0.99324000  0.55114000  1
  C  C551  1  0.71554000  0.99623000  0.65092000  1
  S  S552  1  0.21692000  0.01896000  0.24820000  1
  S  S553  1  0.01896000  0.03128000  0.74820000  1
  S  S554  1  0.72924000  0.21692000  0.74820000  1
  S  S555  1  0.71692000  0.22924000  0.24820000  1
  S  S556  1  0.96872000  0.27076000  0.75180000  1
  S  S557  1  0.48104000  0.28308000  0.25180000  1
  S  S558  1  0.77076000  0.46872000  0.25180000  1
  S  S559  1  0.46872000  0.48104000  0.75180000  1
  S  S560  1  0.53128000  0.51896000  0.24820000  1
  S  S561  1  0.22924000  0.53128000  0.74820000  1
  S  S562  1  0.51896000  0.71692000  0.74820000  1
  S  S563  1  0.03128000  0.72924000  0.24820000  1
  S  S564  1  0.28308000  0.77076000  0.75180000  1
  S  S565  1  0.27076000  0.78308000  0.25180000  1
  S  S566  1  0.98104000  0.96872000  0.25180000  1
  S  S567  1  0.78308000  0.98104000  0.75180000  1
  N  N568  1  0.75000000  0.09805000  1.00000000  1
  N  N569  1  0.25000000  0.21370000  1.00000000  1
  N  N570  1  0.28630000  0.25000000  0.50000000  1
  N  N571  1  0.09805000  0.25000000  0.50000000  1
  N  N572  1  0.78630000  0.25000000  0.50000000  1
  N  N573  1  0.59805000  0.25000000  0.50000000  1
  N  N574  1  0.75000000  0.28630000  0.00000000  1
  N  N575  1  0.25000000  0.40195000  1.00000000  1
  N  N576  1  0.75000000  0.59805000  1.00000000  1
  N  N577  1  0.25000000  0.71370000  0.00000000  1
  N  N578  1  0.40195000  0.75000000  0.50000000  1
  N  N579  1  0.21370000  0.75000000  0.50000000  1
  N  N580  1  0.90195000  0.75000000  0.50000000  1
  N  N581  1  0.71370000  0.75000000  0.50000000  1
  N  N582  1  0.75000000  0.78630000  0.00000000  1
  N  N583  1  0.25000000  0.90195000  0.00000000  1
  O  O584  1  0.12636000  0.01807000  0.30354000  1
  O  O585  1  0.16794000  0.08665000  0.42002000  1
  O  O586  1  0.78547000  0.12636000  0.80354000  1
  O  O587  1  0.73277000  0.14910000  0.91328000  1
  O  O588  1  0.74792000  0.16663000  0.57998000  1
  O  O589  1  0.83337000  0.16794000  0.92002000  1
  O  O590  1  0.01807000  0.17718000  0.80354000  1
  O  O591  1  0.14910000  0.18051000  0.41328000  1
  O  O592  1  0.82282000  0.21453000  0.69646000  1
  O  O593  1  0.64910000  0.23277000  0.41328000  1
  O  O594  1  0.76723000  0.23582000  0.08672000  1
  O  O595  1  0.66663000  0.24792000  0.07998000  1
  O  O596  1  0.08665000  0.25208000  0.92002000  1
  O  O597  1  0.18051000  0.26418000  0.91328000  1
  O  O598  1  0.73582000  0.26723000  0.58672000  1
  O  O599  1  0.62636000  0.28547000  0.30354000  1
  O  O600  1  0.23582000  0.31949000  0.58672000  1
  O  O601  1  0.71453000  0.32282000  0.19646000  1
  O  O602  1  0.41331333  0.33206000  0.07998000  1
  O  O603  1  0.66794000  0.33337000  0.42002000  1
  O  O604  1  0.31949000  0.35090000  0.08672000  1
  O  O605  1  0.48193000  0.37364000  0.19646000  1
  O  O606  1  0.24792000  0.41335000  0.57998000  1
  O  O607  1  0.32282000  0.48193000  0.69646000  1
  O  O608  1  0.67718000  0.51807000  0.30354000  1
  O  O609  1  0.75208000  0.58665000  0.42002000  1
  O  O610  1  0.51807000  0.62636000  0.80354000  1
  O  O611  1  0.68051000  0.64910000  0.91328000  1
  O  O612  1  0.33206000  0.66666667  0.57998000  1
  O  O613  1  0.58665000  0.66794000  0.92002000  1
  O  O614  1  0.28547000  0.67718000  0.80354000  1
  O  O615  1  0.76418000  0.68051000  0.41328000  1
  O  O616  1  0.37364000  0.71453000  0.69646000  1
  O  O617  1  0.26418000  0.73277000  0.41328000  1
  O  O618  1  0.81949000  0.73582000  0.08672000  1
  O  O619  1  0.91335000  0.74792000  0.07998000  1
  O  O620  1  0.33337000  0.75208000  0.92002000  1
  O  O621  1  0.23277000  0.76418000  0.91328000  1
  O  O622  1  0.35090000  0.76723000  0.58672000  1
  O  O623  1  0.17718000  0.78547000  0.30354000  1
  O  O624  1  0.85090000  0.81949000  0.58672000  1
  O  O625  1  0.98193000  0.82282000  0.19646000  1
  O  O626  1  0.16663000  0.83206000  0.07998000  1
  O  O627  1  0.25208000  0.83337000  0.42002000  1
  O  O628  1  0.26723000  0.85090000  0.08672000  1
  O  O629  1  0.21453000  0.87364000  0.19646000  1
  O  O630  1  0.83206000  0.91335000  0.57998000  1
  O  O631  1  0.87364000  0.98193000  0.69646000  1
