# generated using pymatgen
data_YbH3(C3O2)3
_symmetry_space_group_name_H-M   'P 1'
_cell_length_a   10.24100000
_cell_length_b   10.24100000
_cell_length_c   14.40260000
_cell_angle_alpha   90.00000000
_cell_angle_beta   90.00000000
_cell_angle_gamma   90.00000000
_symmetry_Int_Tables_number   1
_chemical_formula_structural   YbH3(C3O2)3
_chemical_formula_sum   'Yb4 H12 C36 O24'
_cell_volume   1510.51704941
_cell_formula_units_Z   4
loop_
 _symmetry_equiv_pos_site_id
 _symmetry_equiv_pos_as_xyz
  1  'x, y, z'
loop_
 _atom_site_type_symbol
 _atom_site_label
 _atom_site_symmetry_multiplicity
 _atom_site_fract_x
 _atom_site_fract_y
 _atom_site_fract_z
 _atom_site_occupancy
  Yb  Yb0  1  0.14713000  0.14713000  0.62500000  1
  Yb  Yb1  1  0.14713000  0.85287000  0.87500000  1
  Yb  Yb2  1  0.85287000  0.14713000  0.37500000  1
  Yb  Yb3  1  0.85287000  0.85287000  0.12500000  1
  H  H4  1  0.00000000  0.10510000  0.00000000  1
  H  H5  1  0.00000000  0.89490000  0.50000000  1
  H  H6  1  0.07330000  0.44350000  0.87020000  1
  H  H7  1  0.07330000  0.55650000  0.62980000  1
  H  H8  1  0.10510000  0.00000000  0.25000000  1
  H  H9  1  0.44350000  0.07330000  0.37980000  1
  H  H10  1  0.44350000  0.92670000  0.12020000  1
  H  H11  1  0.55650000  0.07330000  0.62020000  1
  H  H12  1  0.55650000  0.92670000  0.87980000  1
  H  H13  1  0.89490000  0.00000000  0.75000000  1
  H  H14  1  0.92670000  0.44350000  0.12980000  1
  H  H15  1  0.92670000  0.55650000  0.37020000  1
  C  C16  1  0.00000000  0.19590000  0.00000000  1
  C  C17  1  0.00000000  0.38640000  0.50000000  1
  C  C18  1  0.00000000  0.46580000  0.00000000  1
  C  C19  1  0.00000000  0.53420000  0.50000000  1
  C  C20  1  0.00000000  0.61360000  0.00000000  1
  C  C21  1  0.00000000  0.80410000  0.50000000  1
  C  C22  1  0.04140000  0.26170000  0.92180000  1
  C  C23  1  0.04140000  0.73830000  0.57820000  1
  C  C24  1  0.04330000  0.39810000  0.92190000  1
  C  C25  1  0.04330000  0.60190000  0.57810000  1
  C  C26  1  0.08490000  0.18420000  0.83770000  1
  C  C27  1  0.08490000  0.81580000  0.66230000  1
  C  C28  1  0.18420000  0.08490000  0.41230000  1
  C  C29  1  0.18420000  0.91510000  0.08770000  1
  C  C30  1  0.19590000  0.00000000  0.25000000  1
  C  C31  1  0.26170000  0.04140000  0.32820000  1
  C  C32  1  0.26170000  0.95860000  0.17180000  1
  C  C33  1  0.38640000  0.00000000  0.75000000  1
  C  C34  1  0.39810000  0.04330000  0.32810000  1
  C  C35  1  0.39810000  0.95670000  0.17190000  1
  C  C36  1  0.46580000  0.00000000  0.25000000  1
  C  C37  1  0.53420000  0.00000000  0.75000000  1
  C  C38  1  0.60190000  0.04330000  0.67190000  1
  C  C39  1  0.60190000  0.95670000  0.82810000  1
  C  C40  1  0.61360000  0.00000000  0.25000000  1
  C  C41  1  0.73830000  0.04140000  0.67180000  1
  C  C42  1  0.73830000  0.95860000  0.82820000  1
  C  C43  1  0.80410000  0.00000000  0.75000000  1
  C  C44  1  0.81580000  0.08490000  0.58770000  1
  C  C45  1  0.81580000  0.91510000  0.91230000  1
  C  C46  1  0.91510000  0.18420000  0.16230000  1
  C  C47  1  0.91510000  0.81580000  0.33770000  1
  C  C48  1  0.95670000  0.39810000  0.07810000  1
  C  C49  1  0.95670000  0.60190000  0.42190000  1
  C  C50  1  0.95860000  0.26170000  0.07820000  1
  C  C51  1  0.95860000  0.73830000  0.42180000  1
  O  O52  1  0.06810000  0.11130000  0.40130000  1
  O  O53  1  0.06810000  0.88870000  0.09870000  1
  O  O54  1  0.07220000  0.33230000  0.55800000  1
  O  O55  1  0.07220000  0.66770000  0.94200000  1
  O  O56  1  0.09220000  0.24160000  0.76120000  1
  O  O57  1  0.09220000  0.75840000  0.73880000  1
  O  O58  1  0.11130000  0.06810000  0.84870000  1
  O  O59  1  0.11130000  0.93190000  0.65130000  1
  O  O60  1  0.24160000  0.09220000  0.48880000  1
  O  O61  1  0.24160000  0.90780000  0.01120000  1
  O  O62  1  0.33230000  0.07220000  0.69200000  1
  O  O63  1  0.33230000  0.92780000  0.80800000  1
  O  O64  1  0.66770000  0.07220000  0.30800000  1
  O  O65  1  0.66770000  0.92780000  0.19200000  1
  O  O66  1  0.75840000  0.09220000  0.51120000  1
  O  O67  1  0.75840000  0.90780000  0.98880000  1
  O  O68  1  0.88870000  0.06810000  0.15130000  1
  O  O69  1  0.88870000  0.93190000  0.34870000  1
  O  O70  1  0.90780000  0.24160000  0.23880000  1
  O  O71  1  0.90780000  0.75840000  0.26120000  1
  O  O72  1  0.92780000  0.33230000  0.44200000  1
  O  O73  1  0.92780000  0.66770000  0.05800000  1
  O  O74  1  0.93190000  0.11130000  0.59870000  1
  O  O75  1  0.93190000  0.88870000  0.90130000  1
