# generated using pymatgen
data_CuH8C14N2O5
_symmetry_space_group_name_H-M   'P 1'
_cell_length_a   8.40700000
_cell_length_b   10.28000000
_cell_length_c   17.65500000
_cell_angle_alpha   90.00000000
_cell_angle_beta   102.80000000
_cell_angle_gamma   90.00000000
_symmetry_Int_Tables_number   1
_chemical_formula_structural   CuH8C14N2O5
_chemical_formula_sum   'Cu4 H32 C56 N8 O20'
_cell_volume   1487.89752550
_cell_formula_units_Z   4
loop_
 _symmetry_equiv_pos_site_id
 _symmetry_equiv_pos_as_xyz
  1  'x, y, z'
loop_
 _atom_site_type_symbol
 _atom_site_label
 _atom_site_symmetry_multiplicity
 _atom_site_fract_x
 _atom_site_fract_y
 _atom_site_fract_z
 _atom_site_occupancy
  Cu  Cu0  1  0.17434000  0.94282000  0.06807000  1
  Cu  Cu1  1  0.32566000  0.44282000  0.43193000  1
  Cu  Cu2  1  0.67434000  0.55718000  0.56807000  1
  Cu  Cu3  1  0.82566000  0.05718000  0.93193000  1
  H  H4  1  0.03580000  0.22800000  0.16940000  1
  H  H5  1  0.06420000  0.61050000  0.34190000  1
  H  H6  1  0.06940000  0.72860000  0.59180000  1
  H  H7  1  0.10700000  0.22860000  0.63660000  1
  H  H8  1  0.14000000  0.15500000  0.40800000  1
  H  H9  1  0.14290000  0.41060000  0.98410000  1
  H  H10  1  0.18670000  0.04890000  0.30050000  1
  H  H11  1  0.23350000  0.56520000  0.56490000  1
  H  H12  1  0.26650000  0.06520000  0.93510000  1
  H  H13  1  0.31330000  0.54890000  0.19950000  1
  H  H14  1  0.35710000  0.91060000  0.51590000  1
  H  H15  1  0.36000000  0.65500000  0.09200000  1
  H  H16  1  0.39300000  0.72860000  0.86340000  1
  H  H17  1  0.43060000  0.22860000  0.90820000  1
  H  H18  1  0.43580000  0.11050000  0.15810000  1
  H  H19  1  0.46420000  0.72800000  0.33060000  1
  H  H20  1  0.53580000  0.27200000  0.66940000  1
  H  H21  1  0.56420000  0.88950000  0.84190000  1
  H  H22  1  0.56940000  0.77140000  0.09180000  1
  H  H23  1  0.60700000  0.27140000  0.13660000  1
  H  H24  1  0.64000000  0.34500000  0.90800000  1
  H  H25  1  0.64290000  0.08940000  0.48410000  1
  H  H26  1  0.68670000  0.45110000  0.80050000  1
  H  H27  1  0.73350000  0.93480000  0.06490000  1
  H  H28  1  0.76650000  0.43480000  0.43510000  1
  H  H29  1  0.81330000  0.95110000  0.69950000  1
  H  H30  1  0.85710000  0.58940000  0.01590000  1
  H  H31  1  0.86000000  0.84500000  0.59200000  1
  H  H32  1  0.89300000  0.77140000  0.36340000  1
  H  H33  1  0.93060000  0.27140000  0.40820000  1
  H  H34  1  0.93580000  0.38950000  0.65810000  1
  H  H35  1  0.96420000  0.77200000  0.83060000  1
  C  C36  1  0.01520000  0.79370000  0.98400000  1
  C  C37  1  0.03750000  0.26870000  0.59480000  1
  C  C38  1  0.03770000  0.23040000  0.51960000  1
  C  C39  1  0.06490000  0.63460000  0.39270000  1
  C  C40  1  0.06630000  0.70570000  0.54060000  1
  C  C41  1  0.07670000  0.30470000  0.06970000  1
  C  C42  1  0.08760000  0.29530000  0.14910000  1
  C  C43  1  0.14110000  0.11510000  0.50910000  1
  C  C44  1  0.15270000  0.40490000  0.03750000  1
  C  C45  1  0.16510000  0.60830000  0.52400000  1
  C  C46  1  0.17690000  0.38770000  0.19760000  1
  C  C47  1  0.19370000  0.37890000  0.28390000  1
  C  C48  1  0.24350000  0.49620000  0.08760000  1
  C  C49  1  0.24640000  0.98710000  0.33350000  1
  C  C50  1  0.25360000  0.48710000  0.16650000  1
  C  C51  1  0.25650000  0.99620000  0.41240000  1
  C  C52  1  0.30630000  0.87890000  0.21610000  1
  C  C53  1  0.32310000  0.88770000  0.30240000  1
  C  C54  1  0.33490000  0.10830000  0.97600000  1
  C  C55  1  0.34730000  0.90490000  0.46250000  1
  C  C56  1  0.35890000  0.61510000  0.99090000  1
  C  C57  1  0.41240000  0.79530000  0.35090000  1
  C  C58  1  0.42330000  0.80470000  0.43030000  1
  C  C59  1  0.43370000  0.20570000  0.95940000  1
  C  C60  1  0.43510000  0.13460000  0.10730000  1
  C  C61  1  0.46230000  0.73040000  0.98040000  1
  C  C62  1  0.46250000  0.76870000  0.90520000  1
  C  C63  1  0.48480000  0.29370000  0.51600000  1
  C  C64  1  0.51520000  0.70630000  0.48400000  1
  C  C65  1  0.53750000  0.23130000  0.09480000  1
  C  C66  1  0.53770000  0.26960000  0.01960000  1
  C  C67  1  0.56490000  0.86540000  0.89270000  1
  C  C68  1  0.56630000  0.79430000  0.04060000  1
  C  C69  1  0.57670000  0.19530000  0.56970000  1
  C  C70  1  0.58760000  0.20470000  0.64910000  1
  C  C71  1  0.64110000  0.38490000  0.00910000  1
  C  C72  1  0.65270000  0.09510000  0.53750000  1
  C  C73  1  0.66510000  0.89170000  0.02400000  1
  C  C74  1  0.67690000  0.11230000  0.69760000  1
  C  C75  1  0.69370000  0.12110000  0.78390000  1
  C  C76  1  0.74350000  0.00380000  0.58760000  1
  C  C77  1  0.74640000  0.51290000  0.83350000  1
  C  C78  1  0.75360000  0.01290000  0.66650000  1
  C  C79  1  0.75650000  0.50380000  0.91240000  1
  C  C80  1  0.80630000  0.62110000  0.71610000  1
  C  C81  1  0.82310000  0.61230000  0.80240000  1
  C  C82  1  0.83490000  0.39170000  0.47600000  1
  C  C83  1  0.84730000  0.59510000  0.96250000  1
  C  C84  1  0.85890000  0.88490000  0.49090000  1
  C  C85  1  0.91240000  0.70470000  0.85090000  1
  C  C86  1  0.92330000  0.69530000  0.93030000  1
  C  C87  1  0.93370000  0.29430000  0.45940000  1
  C  C88  1  0.93510000  0.36540000  0.60730000  1
  C  C89  1  0.96230000  0.76960000  0.48040000  1
  C  C90  1  0.96250000  0.73130000  0.40520000  1
  C  C91  1  0.98480000  0.20630000  0.01600000  1
  N  N92  1  0.16660000  0.57290000  0.45100000  1
  N  N93  1  0.17480000  0.10100000  0.43870000  1
  N  N94  1  0.32520000  0.60100000  0.06130000  1
  N  N95  1  0.33340000  0.07290000  0.04900000  1
  N  N96  1  0.66666667  0.92710000  0.95100000  1
  N  N97  1  0.67480000  0.39900000  0.93870000  1
  N  N98  1  0.82520000  0.89900000  0.56130000  1
  N  N99  1  0.83340000  0.42710000  0.54900000  1
  O  O100  1  0.03020000  0.78550000  0.05625000  1
  O  O101  1  0.07990000  0.89150000  0.95817000  1
  O  O102  1  0.11990000  0.29680000  0.31307000  1
  O  O103  1  0.18750000  0.04080000  0.56322000  1
  O  O104  1  0.20940000  0.96400000  0.17664000  1
  O  O105  1  0.29060000  0.46400000  0.32336000  1
  O  O106  1  0.31250000  0.54080000  0.93678000  1
  O  O107  1  0.38010000  0.79680000  0.18693000  1
  O  O108  1  0.42010000  0.39150000  0.54183000  1
  O  O109  1  0.46980000  0.28550000  0.44375000  1
  O  O110  1  0.53020000  0.71450000  0.55625000  1
  O  O111  1  0.57990000  0.60850000  0.45817000  1
  O  O112  1  0.61990000  0.20320000  0.81307000  1
  O  O113  1  0.68750000  0.45920000  0.06322000  1
  O  O114  1  0.70940000  0.53600000  0.67664000  1
  O  O115  1  0.79060000  0.03600000  0.82336000  1
  O  O116  1  0.81250000  0.95920000  0.43678000  1
  O  O117  1  0.88010000  0.70320000  0.68693000  1
  O  O118  1  0.92010000  0.10850000  0.04183000  1
  O  O119  1  0.96980000  0.21450000  0.94375000  1
