# generated using pymatgen
data_MnH6C12(NO2)2
_symmetry_space_group_name_H-M   'P 1'
_cell_length_a   9.24940000
_cell_length_b   9.42120000
_cell_length_c   9.42120000
_cell_angle_alpha   101.27400000
_cell_angle_beta   112.87000000
_cell_angle_gamma   112.87000000
_symmetry_Int_Tables_number   1
_chemical_formula_structural   MnH6C12(NO2)2
_chemical_formula_sum   'Mn2 H12 C24 N4 O8'
_cell_volume   636.25618127
_cell_formula_units_Z   2
loop_
 _symmetry_equiv_pos_site_id
 _symmetry_equiv_pos_as_xyz
  1  'x, y, z'
loop_
 _atom_site_type_symbol
 _atom_site_label
 _atom_site_symmetry_multiplicity
 _atom_site_fract_x
 _atom_site_fract_y
 _atom_site_fract_z
 _atom_site_occupancy
  Mn  Mn0  1  0.25000000  0.96520000  0.03480000  1
  Mn  Mn1  1  0.75000000  0.03480000  0.96520000  1
  H  H2  1  0.17760000  0.50920000  0.26400000  1
  H  H3  1  0.21410000  0.14330000  0.35350000  1
  H  H4  1  0.24890000  0.39060000  0.86880000  1
  H  H5  1  0.25110000  0.13120000  0.60940000  1
  H  H6  1  0.28590000  0.64650000  0.85670000  1
  H  H7  1  0.32240000  0.73600000  0.49080000  1
  H  H8  1  0.67760000  0.26400000  0.50920000  1
  H  H9  1  0.71410000  0.35350000  0.14330000  1
  H  H10  1  0.74890000  0.86880000  0.39060000  1
  H  H11  1  0.75110000  0.60940000  0.13120000  1
  H  H12  1  0.78590000  0.85670000  0.64650000  1
  H  H13  1  0.82240000  0.49080000  0.73600000  1
  C  C14  1  0.16950000  0.25505000  0.07815000  1
  C  C15  1  0.20430000  0.53676000  0.18204000  1
  C  C16  1  0.20480000  0.42094000  0.06586000  1
  C  C17  1  0.23240000  0.05746000  0.38074000  1
  C  C18  1  0.24160000  0.46466000  0.94634000  1
  C  C19  1  0.24320000  0.69262000  0.17718000  1
  C  C20  1  0.25680000  0.82282000  0.30738000  1
  C  C21  1  0.25840000  0.05366000  0.53534000  1
  C  C22  1  0.26760000  0.61926000  0.94254000  1
  C  C23  1  0.29520000  0.93414000  0.57906000  1
  C  C24  1  0.29570000  0.81796000  0.46324000  1
  C  C25  1  0.33050000  0.92185000  0.74495000  1
  C  C26  1  0.66950000  0.07815000  0.25505000  1
  C  C27  1  0.70430000  0.18204000  0.53676000  1
  C  C28  1  0.70480000  0.06586000  0.42094000  1
  C  C29  1  0.73240000  0.38074000  0.05746000  1
  C  C30  1  0.74160000  0.94634000  0.46466000  1
  C  C31  1  0.74320000  0.17718000  0.69262000  1
  C  C32  1  0.75680000  0.30738000  0.82282000  1
  C  C33  1  0.75840000  0.53534000  0.05366000  1
  C  C34  1  0.76760000  0.94254000  0.61926000  1
  C  C35  1  0.79520000  0.57906000  0.93414000  1
  C  C36  1  0.79570000  0.46324000  0.81796000  1
  C  C37  1  0.83050000  0.74495000  0.92185000  1
  N  N38  1  0.23220000  0.94437000  0.26777000  1
  N  N39  1  0.26780000  0.73223000  0.05563000  1
  N  N40  1  0.73220000  0.26777000  0.94437000  1
  N  N41  1  0.76780000  0.05563000  0.73223000  1
  O  O42  1  0.04590000  0.18310000  0.10812000  1
  O  O43  1  0.22560000  0.93442000  0.79408000  1
  O  O44  1  0.27440000  0.20592000  0.06558000  1
  O  O45  1  0.45410000  0.89188000  0.81690000  1
  O  O46  1  0.54590000  0.10812000  0.18310000  1
  O  O47  1  0.72560000  0.79408000  0.93442000  1
  O  O48  1  0.77440000  0.06558000  0.20592000  1
  O  O49  1  0.95410000  0.81690000  0.89188000  1
