# generated using pymatgen
data_Gd2H32C45S3O25
_symmetry_space_group_name_H-M   'P 1'
_cell_length_a   9.26540000
_cell_length_b   15.64200000
_cell_length_c   22.28700000
_cell_angle_alpha   102.15000000
_cell_angle_beta   101.48000000
_cell_angle_gamma   104.44000000
_symmetry_Int_Tables_number   1
_chemical_formula_structural   Gd2H32C45S3O25
_chemical_formula_sum   'Gd4 H64 C90 S6 O50'
_cell_volume   2948.04818692
_cell_formula_units_Z   2
loop_
 _symmetry_equiv_pos_site_id
 _symmetry_equiv_pos_as_xyz
  1  'x, y, z'
loop_
 _atom_site_type_symbol
 _atom_site_label
 _atom_site_symmetry_multiplicity
 _atom_site_fract_x
 _atom_site_fract_y
 _atom_site_fract_z
 _atom_site_occupancy
  Gd  Gd0  1  0.03054000  0.91215000  0.85650000  1
  Gd  Gd1  1  0.48586000  0.13989000  0.19774000  1
  Gd  Gd2  1  0.51414000  0.86011000  0.80226000  1
  Gd  Gd3  1  0.96946000  0.08785000  0.14350000  1
  H  H4  1  0.00380000  0.66440000  0.90940000  1
  H  H5  1  0.00610000  0.43730000  0.29360000  1
  H  H6  1  0.01430000  0.15420000  0.63170000  1
  H  H7  1  0.02420000  0.67080000  0.32200000  1
  H  H8  1  0.02980000  0.09130000  0.71770000  1
  H  H9  1  0.03370000  0.58300000  0.34380000  1
  H  H10  1  0.05470000  0.47910000  0.07220000  1
  H  H11  1  0.07470000  0.30410000  0.26620000  1
  H  H12  1  0.08230000  0.42640000  0.72060000  1
  H  H13  1  0.12240000  0.26380000  0.02080000  1
  H  H14  1  0.12910000  0.16610000  0.33370000  1
  H  H15  1  0.22750000  0.15340000  0.83960000  1
  H  H16  1  0.25310000  0.16660000  0.43350000  1
  H  H17  1  0.26090000  0.27180000  0.79140000  1
  H  H18  1  0.27430000  0.46340000  0.84770000  1
  H  H19  1  0.28110000  0.91370000  0.62660000  1
  H  H20  1  0.31700000  0.15030000  0.59120000  1
  H  H21  1  0.31890000  0.55820000  0.03630000  1
  H  H22  1  0.32690000  0.10490000  0.52300000  1
  H  H23  1  0.33333333  0.20840000  0.54220000  1
  H  H24  1  0.33810000  0.60980000  0.83360000  1
  H  H25  1  0.37780000  0.79040000  0.26000000  1
  H  H26  1  0.38030000  0.53140000  0.09830000  1
  H  H27  1  0.38940000  0.63380000  0.10170000  1
  H  H28  1  0.40550000  0.70820000  0.02540000  1
  H  H29  1  0.40650000  0.43770000  0.19770000  1
  H  H30  1  0.41010000  0.90620000  0.20920000  1
  H  H31  1  0.43010000  0.01290000  0.33180000  1
  H  H32  1  0.44390000  0.95410000  0.41840000  1
  H  H33  1  0.47920000  0.25790000  0.29860000  1
  H  H34  1  0.48060000  0.82080000  0.69560000  1
  H  H35  1  0.49140000  0.80900000  0.96780000  1
  H  H36  1  0.50860000  0.19100000  0.03220000  1
  H  H37  1  0.51940000  0.17920000  0.30440000  1
  H  H38  1  0.52080000  0.74210000  0.70140000  1
  H  H39  1  0.55610000  0.04590000  0.58160000  1
  H  H40  1  0.56990000  0.98710000  0.66820000  1
  H  H41  1  0.58990000  0.09380000  0.79080000  1
  H  H42  1  0.59350000  0.56230000  0.80230000  1
  H  H43  1  0.59450000  0.29180000  0.97460000  1
  H  H44  1  0.61060000  0.36620000  0.89830000  1
  H  H45  1  0.61970000  0.46860000  0.90170000  1
  H  H46  1  0.62220000  0.20960000  0.74000000  1
  H  H47  1  0.66190000  0.39020000  0.16640000  1
  H  H48  1  0.66666667  0.79160000  0.45780000  1
  H  H49  1  0.67310000  0.89510000  0.47700000  1
  H  H50  1  0.68110000  0.44180000  0.96370000  1
  H  H51  1  0.68300000  0.84970000  0.40880000  1
  H  H52  1  0.71890000  0.08630000  0.37340000  1
  H  H53  1  0.72570000  0.53660000  0.15230000  1
  H  H54  1  0.73910000  0.72820000  0.20860000  1
  H  H55  1  0.74690000  0.83340000  0.56650000  1
  H  H56  1  0.77250000  0.84660000  0.16040000  1
  H  H57  1  0.87090000  0.83390000  0.66630000  1
  H  H58  1  0.87760000  0.73620000  0.97920000  1
  H  H59  1  0.91770000  0.57360000  0.27940000  1
  H  H60  1  0.92530000  0.69590000  0.73380000  1
  H  H61  1  0.94530000  0.52090000  0.92780000  1
  H  H62  1  0.96630000  0.41700000  0.65620000  1
  H  H63  1  0.97020000  0.90870000  0.28230000  1
  H  H64  1  0.97580000  0.32920000  0.67800000  1
  H  H65  1  0.98570000  0.84580000  0.36830000  1
  H  H66  1  0.99390000  0.56270000  0.70640000  1
  H  H67  1  0.99620000  0.33560000  0.09060000  1
  C  C68  1  0.01790000  0.60730000  0.30780000  1
  C  C69  1  0.02290000  0.53850000  0.90800000  1
  C  C70  1  0.05780000  0.62400000  0.89710000  1
  C  C71  1  0.06380000  0.12380000  0.46380000  1
  C  C72  1  0.06590000  0.91700000  0.30950000  1
  C  C73  1  0.07140000  0.14930000  0.36130000  1
  C  C74  1  0.07490000  0.88020000  0.36110000  1
  C  C75  1  0.08680000  0.43740000  0.27460000  1
  C  C76  1  0.08870000  0.87550000  0.65830000  1
  C  C77  1  0.09590000  0.89880000  0.55580000  1
  C  C78  1  0.10380000  0.47930000  0.88940000  1
  C  C79  1  0.12760000  0.35720000  0.25770000  1
  C  C80  1  0.14570000  0.14920000  0.42120000  1
  C  C81  1  0.16580000  0.51640000  0.26310000  1
  C  C82  1  0.17080000  0.87650000  0.72370000  1
  C  C83  1  0.17380000  0.89870000  0.61510000  1
  C  C84  1  0.17610000  0.64940000  0.86720000  1
  C  C85  1  0.18890000  0.00420000  0.24120000  1
  C  C86  1  0.20000000  0.96600000  0.29860000  1
  C  C87  1  0.20850000  0.74340000  0.85550000  1
  C  C88  1  0.21500000  0.89510000  0.40090000  1
  C  C89  1  0.21860000  0.27040000  0.01270000  1
  C  C90  1  0.22100000  0.50400000  0.86050000  1
  C  C91  1  0.24630000  0.35620000  0.22850000  1
  C  C92  1  0.25020000  0.15460000  0.07000000  1
  C  C93  1  0.25670000  0.59110000  0.85120000  1
  C  C94  1  0.27130000  0.33180000  0.98140000  1
  C  C95  1  0.28650000  0.51510000  0.23410000  1
  C  C96  1  0.28890000  0.14870000  0.54700000  1
  C  C97  1  0.29430000  0.27310000  0.21120000  1
  C  C98  1  0.30780000  0.16550000  0.82040000  1
  C  C99  1  0.30790000  0.21760000  0.03240000  1
  C  C100  1  0.32610000  0.43720000  0.21700000  1
  C  C101  1  0.32710000  0.23590000  0.79130000  1
  C  C102  1  0.34020000  0.97970000  0.33910000  1
  C  C103  1  0.34860000  0.94450000  0.39060000  1
  C  C104  1  0.38870000  0.03760000  0.85370000  1
  C  C105  1  0.39640000  0.57800000  0.07620000  1
  C  C106  1  0.40810000  0.11320000  0.82080000  1
  C  C107  1  0.41390000  0.34100000  0.96650000  1
  C  C108  1  0.44590000  0.25240000  0.76190000  1
  C  C109  1  0.44820000  0.22630000  0.01870000  1
  C  C110  1  0.45580000  0.80080000  0.23940000  1
  C  C111  1  0.47620000  0.87020000  0.20920000  1
  C  C112  1  0.49920000  0.71250000  0.01530000  1
  C  C113  1  0.50080000  0.28750000  0.98470000  1
  C  C114  1  0.52380000  0.12980000  0.79080000  1
  C  C115  1  0.54420000  0.19920000  0.76060000  1
  C  C116  1  0.55180000  0.77370000  0.98130000  1
  C  C117  1  0.55410000  0.74760000  0.23810000  1
  C  C118  1  0.58610000  0.65900000  0.03350000  1
  C  C119  1  0.59190000  0.88680000  0.17920000  1
  C  C120  1  0.60360000  0.42200000  0.92380000  1
  C  C121  1  0.61130000  0.96240000  0.14630000  1
  C  C122  1  0.65140000  0.05550000  0.60940000  1
  C  C123  1  0.65980000  0.02030000  0.66090000  1
  C  C124  1  0.67290000  0.76410000  0.20870000  1
  C  C125  1  0.67390000  0.56280000  0.78300000  1
  C  C126  1  0.69210000  0.78240000  0.96760000  1
  C  C127  1  0.69220000  0.83450000  0.17960000  1
  C  C128  1  0.70570000  0.72690000  0.78880000  1
  C  C129  1  0.71110000  0.85130000  0.45300000  1
  C  C130  1  0.71350000  0.48490000  0.76590000  1
  C  C131  1  0.72870000  0.66820000  0.01860000  1
  C  C132  1  0.74330000  0.40890000  0.14880000  1
  C  C133  1  0.74980000  0.84540000  0.93000000  1
  C  C134  1  0.75370000  0.64380000  0.77150000  1
  C  C135  1  0.77900000  0.49600000  0.13950000  1
  C  C136  1  0.78140000  0.72960000  0.98730000  1
  C  C137  1  0.78500000  0.10490000  0.59910000  1
  C  C138  1  0.79150000  0.25660000  0.14450000  1
  C  C139  1  0.80000000  0.03400000  0.70140000  1
  C  C140  1  0.81110000  0.99580000  0.75880000  1
  C  C141  1  0.82390000  0.35060000  0.13280000  1
  C  C142  1  0.82620000  0.10130000  0.38490000  1
  C  C143  1  0.82920000  0.12350000  0.27630000  1
  C  C144  1  0.83420000  0.48360000  0.73690000  1
  C  C145  1  0.85430000  0.85080000  0.57880000  1
  C  C146  1  0.87240000  0.64280000  0.74230000  1
  C  C147  1  0.89620000  0.52070000  0.11060000  1
  C  C148  1  0.90410000  0.10120000  0.44420000  1
  C  C149  1  0.91130000  0.12450000  0.34170000  1
  C  C150  1  0.91320000  0.56260000  0.72540000  1
  C  C151  1  0.92510000  0.11980000  0.63890000  1
  C  C152  1  0.92860000  0.85070000  0.63870000  1
  C  C153  1  0.93410000  0.08300000  0.69050000  1
  C  C154  1  0.93620000  0.87620000  0.53620000  1
  C  C155  1  0.94220000  0.37600000  0.10290000  1
  C  C156  1  0.97710000  0.46150000  0.09200000  1
  C  C157  1  0.98210000  0.39270000  0.69220000  1
  S  S158  1  0.06010000  0.36970000  0.90277000  1
  S  S159  1  0.22550000  0.84930000  0.46751000  1
  S  S160  1  0.47540000  0.34430000  0.72869000  1
  S  S161  1  0.52460000  0.65570000  0.27131000  1
  S  S162  1  0.77450000  0.15070000  0.53249000  1
  S  S163  1  0.93990000  0.63030000  0.09723000  1
  O  O164  1  0.06040000  0.00130000  0.21010000  1
  O  O165  1  0.08620000  0.65050000  0.08270000  1
  O  O166  1  0.08790000  0.30360000  0.85590000  1
  O  O167  1  0.08960000  0.86090000  0.76160000  1
  O  O168  1  0.10840000  0.76340000  0.45180000  1
  O  O169  1  0.11810000  0.14570000  0.07660000  1
  O  O170  1  0.12430000  0.12260000  0.52430000  1
  O  O171  1  0.13220000  0.79350000  0.87320000  1
  O  O172  1  0.13480000  0.59910000  0.27500000  1
  O  O173  1  0.18210000  0.92670000  0.51380000  1
  O  O174  1  0.19020000  0.39450000  0.96840000  1
  O  O175  1  0.20910000  0.19460000  0.20990000  1
  O  O176  1  0.27040000  0.01700000  0.87240000  1
  O  O177  1  0.30920000  0.76300000  0.82560000  1
  O  O178  1  0.31490000  0.03740000  0.22930000  1
  O  O179  1  0.31500000  0.88980000  0.73520000  1
  O  O180  1  0.34240000  0.11480000  0.09540000  1
  O  O181  1  0.36310000  0.39140000  0.73680000  1
  O  O182  1  0.36430000  0.59540000  0.22090000  1
  O  O183  1  0.38210000  0.85550000  0.49470000  1
  O  O184  1  0.42380000  0.28120000  0.19910000  1
  O  O185  1  0.44750000  0.76430000  0.69330000  1
  O  O186  1  0.45360000  0.40620000  0.93510000  1
  O  O187  1  0.49420000  0.00030000  0.86130000  1
  O  O188  1  0.49790000  0.68180000  0.33160000  1
  O  O189  1  0.50210000  0.31820000  0.66840000  1
  O  O190  1  0.50580000  0.99970000  0.13870000  1
  O  O191  1  0.54640000  0.59380000  0.06490000  1
  O  O192  1  0.55250000  0.23570000  0.30670000  1
  O  O193  1  0.57620000  0.71880000  0.80090000  1
  O  O194  1  0.61790000  0.14450000  0.50530000  1
  O  O195  1  0.63570000  0.40460000  0.77910000  1
  O  O196  1  0.63690000  0.60860000  0.26320000  1
  O  O197  1  0.65760000  0.88520000  0.90460000  1
  O  O198  1  0.68500000  0.11020000  0.26480000  1
  O  O199  1  0.68510000  0.96260000  0.77070000  1
  O  O200  1  0.69080000  0.23700000  0.17440000  1
  O  O201  1  0.72960000  0.98300000  0.12760000  1
  O  O202  1  0.79090000  0.80540000  0.79010000  1
  O  O203  1  0.80980000  0.60550000  0.03160000  1
  O  O204  1  0.81790000  0.07330000  0.48620000  1
  O  O205  1  0.86520000  0.40090000  0.72500000  1
  O  O206  1  0.86780000  0.20650000  0.12680000  1
  O  O207  1  0.87570000  0.87740000  0.47570000  1
  O  O208  1  0.88190000  0.85430000  0.92340000  1
  O  O209  1  0.89160000  0.23660000  0.54820000  1
  O  O210  1  0.91040000  0.13910000  0.23840000  1
  O  O211  1  0.91210000  0.69640000  0.14410000  1
  O  O212  1  0.91380000  0.34950000  0.91730000  1
  O  O213  1  0.93960000  0.99870000  0.78990000  1
