# generated using pymatgen
data_CdH4C8N8Cl
_symmetry_space_group_name_H-M   'P 1'
_cell_length_a   7.61110000
_cell_length_b   14.23910000
_cell_length_c   14.23910000
_cell_angle_alpha   61.55780000
_cell_angle_beta   74.49860000
_cell_angle_gamma   74.49860000
_symmetry_Int_Tables_number   1
_chemical_formula_structural   CdH4C8N8Cl
_chemical_formula_sum   'Cd2 H8 C16 N16 Cl2'
_cell_volume   1289.57896236
_cell_formula_units_Z   2
loop_
 _symmetry_equiv_pos_site_id
 _symmetry_equiv_pos_as_xyz
  1  'x, y, z'
loop_
 _atom_site_type_symbol
 _atom_site_label
 _atom_site_symmetry_multiplicity
 _atom_site_fract_x
 _atom_site_fract_y
 _atom_site_fract_z
 _atom_site_occupancy
  Cd  Cd0  1  0.00000000  0.00000000  0.00000000  1
  Cd  Cd1  1  0.50000000  0.00000000  0.00000000  1
  H  H2  1  0.19290000  0.00190000  0.58350000  1
  H  H3  1  0.22170000  0.58350000  0.00190000  1
  H  H4  1  0.27830000  0.99810000  0.41650000  1
  H  H5  1  0.30710000  0.41650000  0.99810000  1
  H  H6  1  0.69290000  0.58350000  0.00190000  1
  H  H7  1  0.72170000  0.00190000  0.58350000  1
  H  H8  1  0.77830000  0.41650000  0.99810000  1
  H  H9  1  0.80710000  0.99810000  0.41650000  1
  C  C10  1  0.05160000  0.39970000  0.99710000  1
  C  C11  1  0.10620000  0.29040000  0.99720000  1
  C  C12  1  0.13050000  0.54960000  0.00120000  1
  C  C13  1  0.18130000  0.45040000  0.99880000  1
  C  C14  1  0.31870000  0.00120000  0.54960000  1
  C  C15  1  0.36950000  0.99880000  0.45040000  1
  C  C16  1  0.39380000  0.00280000  0.70960000  1
  C  C17  1  0.44840000  0.00290000  0.60030000  1
  C  C18  1  0.55160000  0.99710000  0.39970000  1
  C  C19  1  0.60620000  0.99720000  0.29040000  1
  C  C20  1  0.63050000  0.00120000  0.54960000  1
  C  C21  1  0.68130000  0.99880000  0.45040000  1
  C  C22  1  0.81870000  0.54960000  0.00120000  1
  C  C23  1  0.86950000  0.45040000  0.99880000  1
  C  C24  1  0.89380000  0.70960000  0.00280000  1
  C  C25  1  0.94840000  0.60030000  0.00290000  1
  N  N26  1  0.01275000  0.76335000  0.00195000  1
  N  N27  1  0.09233000  0.14597000  0.99597000  1
  N  N28  1  0.22195000  0.00195000  0.76335000  1
  N  N29  1  0.23427000  0.00403000  0.85403000  1
  N  N30  1  0.26573000  0.14597000  0.99597000  1
  N  N31  1  0.27805000  0.23665000  0.99805000  1
  N  N32  1  0.40767000  0.00403000  0.85403000  1
  N  N33  1  0.48725000  0.99805000  0.23665000  1
  N  N34  1  0.51275000  0.00195000  0.76335000  1
  N  N35  1  0.59233000  0.99597000  0.14597000  1
  N  N36  1  0.72195000  0.76335000  0.00195000  1
  N  N37  1  0.73427000  0.85403000  0.00403000  1
  N  N38  1  0.76573000  0.99597000  0.14597000  1
  N  N39  1  0.77805000  0.99805000  0.23665000  1
  N  N40  1  0.90767000  0.85403000  0.00403000  1
  N  N41  1  0.98725000  0.23665000  0.99805000  1
  Cl  Cl42  1  0.25000000  0.87655000  0.12345000  1
  Cl  Cl43  1  0.75000000  0.12345000  0.87655000  1
