# generated using pymatgen
data_MnH8C14N2O5
_symmetry_space_group_name_H-M   'P 1'
_cell_length_a   10.23190000
_cell_length_b   18.73300000
_cell_length_c   20.28300000
_cell_angle_alpha   90.00000000
_cell_angle_beta   90.00000000
_cell_angle_gamma   90.00000000
_symmetry_Int_Tables_number   1
_chemical_formula_structural   MnH8C14N2O5
_chemical_formula_sum   'Mn8 H64 C112 N16 O40'
_cell_volume   3887.72744770
_cell_formula_units_Z   8
loop_
 _symmetry_equiv_pos_site_id
 _symmetry_equiv_pos_as_xyz
  1  'x, y, z'
loop_
 _atom_site_type_symbol
 _atom_site_label
 _atom_site_symmetry_multiplicity
 _atom_site_fract_x
 _atom_site_fract_y
 _atom_site_fract_z
 _atom_site_occupancy
  Mn  Mn0  1  0.16315000  0.05031000  0.55107000  1
  Mn  Mn1  1  0.16315000  0.94969000  0.94893000  1
  Mn  Mn2  1  0.33685000  0.44969000  0.05107000  1
  Mn  Mn3  1  0.33685000  0.55031000  0.44893000  1
  Mn  Mn4  1  0.66315000  0.44969000  0.55107000  1
  Mn  Mn5  1  0.66315000  0.55031000  0.94893000  1
  Mn  Mn6  1  0.83685000  0.05031000  0.05107000  1
  Mn  Mn7  1  0.83685000  0.94969000  0.44893000  1
  H  H8  1  0.02430000  0.07370000  0.40960000  1
  H  H9  1  0.02430000  0.92630000  0.09040000  1
  H  H10  1  0.03390000  0.30190000  0.16590000  1
  H  H11  1  0.03390000  0.69810000  0.33410000  1
  H  H12  1  0.04090000  0.17480000  0.34510000  1
  H  H13  1  0.04090000  0.82520000  0.15490000  1
  H  H14  1  0.12600000  0.45470000  0.55070000  1
  H  H15  1  0.12600000  0.54530000  0.94930000  1
  H  H16  1  0.14240000  0.19390000  0.13620000  1
  H  H17  1  0.14240000  0.80610000  0.36380000  1
  H  H18  1  0.20320000  0.48410000  0.31980000  1
  H  H19  1  0.20320000  0.51590000  0.18020000  1
  H  H20  1  0.20950000  0.38420000  0.25250000  1
  H  H21  1  0.20950000  0.61580000  0.24750000  1
  H  H22  1  0.22660000  0.19640000  0.68320000  1
  H  H23  1  0.22660000  0.80360000  0.81680000  1
  H  H24  1  0.27340000  0.30360000  0.18320000  1
  H  H25  1  0.27340000  0.69640000  0.31680000  1
  H  H26  1  0.29050000  0.11580000  0.75250000  1
  H  H27  1  0.29050000  0.88420000  0.74750000  1
  H  H28  1  0.29680000  0.01590000  0.81980000  1
  H  H29  1  0.29680000  0.98410000  0.68020000  1
  H  H30  1  0.35760000  0.30610000  0.63620000  1
  H  H31  1  0.35760000  0.69390000  0.86380000  1
  H  H32  1  0.37400000  0.04530000  0.05070000  1
  H  H33  1  0.37400000  0.95470000  0.44930000  1
  H  H34  1  0.45910000  0.32520000  0.84510000  1
  H  H35  1  0.45910000  0.67480000  0.65490000  1
  H  H36  1  0.46610000  0.19810000  0.66590000  1
  H  H37  1  0.46610000  0.80190000  0.83410000  1
  H  H38  1  0.47570000  0.42630000  0.90960000  1
  H  H39  1  0.47570000  0.57370000  0.59040000  1
  H  H40  1  0.52430000  0.42630000  0.40960000  1
  H  H41  1  0.52430000  0.57370000  0.09040000  1
  H  H42  1  0.53390000  0.19810000  0.16590000  1
  H  H43  1  0.53390000  0.80190000  0.33410000  1
  H  H44  1  0.54090000  0.32520000  0.34510000  1
  H  H45  1  0.54090000  0.67480000  0.15490000  1
  H  H46  1  0.62600000  0.04530000  0.55070000  1
  H  H47  1  0.62600000  0.95470000  0.94930000  1
  H  H48  1  0.64240000  0.30610000  0.13620000  1
  H  H49  1  0.64240000  0.69390000  0.36380000  1
  H  H50  1  0.70320000  0.01590000  0.31980000  1
  H  H51  1  0.70320000  0.98410000  0.18020000  1
  H  H52  1  0.70950000  0.11580000  0.25250000  1
  H  H53  1  0.70950000  0.88420000  0.24750000  1
  H  H54  1  0.72660000  0.30360000  0.68320000  1
  H  H55  1  0.72660000  0.69640000  0.81680000  1
  H  H56  1  0.77340000  0.19640000  0.18320000  1
  H  H57  1  0.77340000  0.80360000  0.31680000  1
  H  H58  1  0.79050000  0.38420000  0.75250000  1
  H  H59  1  0.79050000  0.61580000  0.74750000  1
  H  H60  1  0.79680000  0.48410000  0.81980000  1
  H  H61  1  0.79680000  0.51590000  0.68020000  1
  H  H62  1  0.85760000  0.19390000  0.63620000  1
  H  H63  1  0.85760000  0.80610000  0.86380000  1
  H  H64  1  0.87400000  0.45470000  0.05070000  1
  H  H65  1  0.87400000  0.54530000  0.44930000  1
  H  H66  1  0.95910000  0.17480000  0.84510000  1
  H  H67  1  0.95910000  0.82520000  0.65490000  1
  H  H68  1  0.96610000  0.30190000  0.66590000  1
  H  H69  1  0.96610000  0.69810000  0.83410000  1
  H  H70  1  0.97570000  0.07370000  0.90960000  1
  H  H71  1  0.97570000  0.92630000  0.59040000  1
  C  C72  1  0.02650000  0.38330000  0.60719000  1
  C  C73  1  0.02650000  0.61670000  0.89281000  1
  C  C74  1  0.03050000  0.14306000  0.83923000  1
  C  C75  1  0.03050000  0.85694000  0.66077000  1
  C  C76  1  0.04080000  0.32329000  0.64632000  1
  C  C77  1  0.04080000  0.67671000  0.85368000  1
  C  C78  1  0.04140000  0.08268000  0.87757000  1
  C  C79  1  0.04140000  0.91732000  0.62243000  1
  C  C80  1  0.10750000  0.41278000  0.09490000  1
  C  C81  1  0.10750000  0.58722000  0.40510000  1
  C  C82  1  0.11280000  0.22615000  0.75546000  1
  C  C83  1  0.11280000  0.77385000  0.74454000  1
  C  C84  1  0.12280000  0.07842000  0.06030000  1
  C  C85  1  0.12280000  0.92158000  0.43970000  1
  C  C86  1  0.12470000  0.15691000  0.79210000  1
  C  C87  1  0.12470000  0.84309000  0.70790000  1
  C  C88  1  0.13580000  0.41408000  0.57823000  1
  C  C89  1  0.13580000  0.58592000  0.92177000  1
  C  C90  1  0.16390000  0.29414000  0.65706000  1
  C  C91  1  0.16390000  0.70586000  0.84294000  1
  C  C92  1  0.22460000  0.10860000  0.78482000  1
  C  C93  1  0.22460000  0.89140000  0.71518000  1
  C  C94  1  0.22680000  0.17437000  0.12871000  1
  C  C95  1  0.22680000  0.82563000  0.37129000  1
  C  C96  1  0.22780000  0.04930000  0.82542000  1
  C  C97  1  0.22780000  0.95070000  0.67458000  1
  C  C98  1  0.24130000  0.11409000  0.08928000  1
  C  C99  1  0.24130000  0.88591000  0.41072000  1
  C  C100  1  0.25870000  0.38591000  0.58928000  1
  C  C101  1  0.25870000  0.61409000  0.91072000  1
  C  C102  1  0.27220000  0.45070000  0.32542000  1
  C  C103  1  0.27220000  0.54930000  0.17458000  1
  C  C104  1  0.27320000  0.32563000  0.62871000  1
  C  C105  1  0.27320000  0.67437000  0.87129000  1
  C  C106  1  0.27540000  0.39140000  0.28482000  1
  C  C107  1  0.27540000  0.60860000  0.21518000  1
  C  C108  1  0.33610000  0.20586000  0.15706000  1
  C  C109  1  0.33610000  0.79414000  0.34294000  1
  C  C110  1  0.36420000  0.08592000  0.07823000  1
  C  C111  1  0.36420000  0.91408000  0.42177000  1
  C  C112  1  0.37530000  0.34309000  0.29210000  1
  C  C113  1  0.37530000  0.65691000  0.20790000  1
  C  C114  1  0.37720000  0.42158000  0.56030000  1
  C  C115  1  0.37720000  0.57842000  0.93970000  1
  C  C116  1  0.38720000  0.27385000  0.25546000  1
  C  C117  1  0.38720000  0.72615000  0.24454000  1
  C  C118  1  0.39250000  0.08722000  0.59490000  1
  C  C119  1  0.39250000  0.91278000  0.90510000  1
  C  C120  1  0.45860000  0.41732000  0.37757000  1
  C  C121  1  0.45860000  0.58268000  0.12243000  1
  C  C122  1  0.45920000  0.17671000  0.14632000  1
  C  C123  1  0.45920000  0.82329000  0.35368000  1
  C  C124  1  0.46950000  0.35694000  0.33923000  1
  C  C125  1  0.46950000  0.64306000  0.16077000  1
  C  C126  1  0.47350000  0.11670000  0.10719000  1
  C  C127  1  0.47350000  0.88330000  0.39281000  1
  C  C128  1  0.52650000  0.11670000  0.60719000  1
  C  C129  1  0.52650000  0.88330000  0.89281000  1
  C  C130  1  0.53050000  0.35694000  0.83923000  1
  C  C131  1  0.53050000  0.64306000  0.66077000  1
  C  C132  1  0.54080000  0.17671000  0.64632000  1
  C  C133  1  0.54080000  0.82329000  0.85368000  1
  C  C134  1  0.54140000  0.41732000  0.87757000  1
  C  C135  1  0.54140000  0.58268000  0.62243000  1
  C  C136  1  0.60750000  0.08722000  0.09490000  1
  C  C137  1  0.60750000  0.91278000  0.40510000  1
  C  C138  1  0.61280000  0.27385000  0.75546000  1
  C  C139  1  0.61280000  0.72615000  0.74454000  1
  C  C140  1  0.62280000  0.42158000  0.06030000  1
  C  C141  1  0.62280000  0.57842000  0.43970000  1
  C  C142  1  0.62470000  0.34309000  0.79210000  1
  C  C143  1  0.62470000  0.65691000  0.70790000  1
  C  C144  1  0.63580000  0.08592000  0.57823000  1
  C  C145  1  0.63580000  0.91408000  0.92177000  1
  C  C146  1  0.66390000  0.20586000  0.65706000  1
  C  C147  1  0.66390000  0.79414000  0.84294000  1
  C  C148  1  0.72460000  0.39140000  0.78482000  1
  C  C149  1  0.72460000  0.60860000  0.71518000  1
  C  C150  1  0.72680000  0.32563000  0.12871000  1
  C  C151  1  0.72680000  0.67437000  0.37129000  1
  C  C152  1  0.72780000  0.45070000  0.82542000  1
  C  C153  1  0.72780000  0.54930000  0.67458000  1
  C  C154  1  0.74130000  0.38591000  0.08928000  1
  C  C155  1  0.74130000  0.61409000  0.41072000  1
  C  C156  1  0.75870000  0.11409000  0.58928000  1
  C  C157  1  0.75870000  0.88591000  0.91072000  1
  C  C158  1  0.77220000  0.04930000  0.32542000  1
  C  C159  1  0.77220000  0.95070000  0.17458000  1
  C  C160  1  0.77320000  0.17437000  0.62871000  1
  C  C161  1  0.77320000  0.82563000  0.87129000  1
  C  C162  1  0.77540000  0.10860000  0.28482000  1
  C  C163  1  0.77540000  0.89140000  0.21518000  1
  C  C164  1  0.83610000  0.29414000  0.15706000  1
  C  C165  1  0.83610000  0.70586000  0.34294000  1
  C  C166  1  0.86420000  0.41408000  0.07823000  1
  C  C167  1  0.86420000  0.58592000  0.42177000  1
  C  C168  1  0.87530000  0.15691000  0.29210000  1
  C  C169  1  0.87530000  0.84309000  0.20790000  1
  C  C170  1  0.87720000  0.07842000  0.56030000  1
  C  C171  1  0.87720000  0.92158000  0.93970000  1
  C  C172  1  0.88720000  0.22615000  0.25546000  1
  C  C173  1  0.88720000  0.77385000  0.24454000  1
  C  C174  1  0.89250000  0.41278000  0.59490000  1
  C  C175  1  0.89250000  0.58722000  0.90510000  1
  C  C176  1  0.95860000  0.08268000  0.37757000  1
  C  C177  1  0.95860000  0.91732000  0.12243000  1
  C  C178  1  0.95920000  0.32329000  0.14632000  1
  C  C179  1  0.95920000  0.67671000  0.35368000  1
  C  C180  1  0.96950000  0.14306000  0.33923000  1
  C  C181  1  0.96950000  0.85694000  0.16077000  1
  C  C182  1  0.97350000  0.38330000  0.10719000  1
  C  C183  1  0.97350000  0.61670000  0.39281000  1
  N  N184  1  0.13890000  0.03653000  0.87204000  1
  N  N185  1  0.13890000  0.96347000  0.62796000  1
  N  N186  1  0.17680000  0.23171000  0.69679000  1
  N  N187  1  0.17680000  0.76829000  0.80321000  1
  N  N188  1  0.32320000  0.26829000  0.19679000  1
  N  N189  1  0.32320000  0.73171000  0.30321000  1
  N  N190  1  0.36110000  0.46347000  0.37204000  1
  N  N191  1  0.36110000  0.53653000  0.12796000  1
  N  N192  1  0.63890000  0.46347000  0.87204000  1
  N  N193  1  0.63890000  0.53653000  0.62796000  1
  N  N194  1  0.67680000  0.26829000  0.69679000  1
  N  N195  1  0.67680000  0.73171000  0.80321000  1
  N  N196  1  0.82320000  0.23171000  0.19679000  1
  N  N197  1  0.82320000  0.76829000  0.30321000  1
  N  N198  1  0.86110000  0.03653000  0.37204000  1
  N  N199  1  0.86110000  0.96347000  0.12796000  1
  O  O200  1  0.01202000  0.10354000  0.07422000  1
  O  O201  1  0.01202000  0.89646000  0.42578000  1
  O  O202  1  0.04690000  0.27427000  0.77872000  1
  O  O203  1  0.04690000  0.72573000  0.72128000  1
  O  O204  1  0.11860000  0.46667000  0.05867000  1
  O  O205  1  0.11860000  0.53333000  0.44133000  1
  O  O206  1  0.13957000  0.02433000  0.02535000  1
  O  O207  1  0.13957000  0.97567000  0.47465000  1
  O  O208  1  0.20638000  0.38186000  0.11916000  1
  O  O209  1  0.20638000  0.61814000  0.38084000  1
  O  O210  1  0.29362000  0.11814000  0.61916000  1
  O  O211  1  0.29362000  0.88186000  0.88084000  1
  O  O212  1  0.36043000  0.47567000  0.52535000  1
  O  O213  1  0.36043000  0.52433000  0.97465000  1
  O  O214  1  0.38140000  0.03333000  0.55867000  1
  O  O215  1  0.38140000  0.96667000  0.94133000  1
  O  O216  1  0.45310000  0.22573000  0.27872000  1
  O  O217  1  0.45310000  0.77427000  0.22128000  1
  O  O218  1  0.48798000  0.39646000  0.57422000  1
  O  O219  1  0.48798000  0.60354000  0.92578000  1
  O  O220  1  0.51202000  0.39646000  0.07422000  1
  O  O221  1  0.51202000  0.60354000  0.42578000  1
  O  O222  1  0.54690000  0.22573000  0.77872000  1
  O  O223  1  0.54690000  0.77427000  0.72128000  1
  O  O224  1  0.61860000  0.03333000  0.05867000  1
  O  O225  1  0.61860000  0.96667000  0.44133000  1
  O  O226  1  0.63957000  0.47567000  0.02535000  1
  O  O227  1  0.63957000  0.52433000  0.47465000  1
  O  O228  1  0.70638000  0.11814000  0.11916000  1
  O  O229  1  0.70638000  0.88186000  0.38084000  1
  O  O230  1  0.79362000  0.38186000  0.61916000  1
  O  O231  1  0.79362000  0.61814000  0.88084000  1
  O  O232  1  0.86043000  0.02433000  0.52535000  1
  O  O233  1  0.86043000  0.97567000  0.97465000  1
  O  O234  1  0.88140000  0.46667000  0.55867000  1
  O  O235  1  0.88140000  0.53333000  0.94133000  1
  O  O236  1  0.95310000  0.27427000  0.27872000  1
  O  O237  1  0.95310000  0.72573000  0.22128000  1
  O  O238  1  0.98798000  0.10354000  0.57422000  1
  O  O239  1  0.98798000  0.89646000  0.92578000  1
