# generated using pymatgen
data_VH4C8O5
_symmetry_space_group_name_H-M   'P 1'
_cell_length_a   6.82700000
_cell_length_b   13.96500000
_cell_length_c   16.07300000
_cell_angle_alpha   90.00000000
_cell_angle_beta   90.00000000
_cell_angle_gamma   90.00000000
_symmetry_Int_Tables_number   1
_chemical_formula_structural   VH4C8O5
_chemical_formula_sum   'V4 H16 C32 O20'
_cell_volume   1532.38463101
_cell_formula_units_Z   4
loop_
 _symmetry_equiv_pos_site_id
 _symmetry_equiv_pos_as_xyz
  1  'x, y, z'
loop_
 _atom_site_type_symbol
 _atom_site_label
 _atom_site_symmetry_multiplicity
 _atom_site_fract_x
 _atom_site_fract_y
 _atom_site_fract_z
 _atom_site_occupancy
  V  V0  1  0.06512000  0.73585000  0.00089000  1
  V  V1  1  0.43488000  0.26415000  0.50089000  1
  V  V2  1  0.56512000  0.76415000  0.99911000  1
  V  V3  1  0.93488000  0.23585000  0.49911000  1
  H  H4  1  0.03110000  0.45230000  0.31880000  1
  H  H5  1  0.03130000  0.41220000  0.71320000  1
  H  H6  1  0.05180000  0.55210000  0.20680000  1
  H  H7  1  0.05190000  0.51850000  0.82020000  1
  H  H8  1  0.44810000  0.48150000  0.32020000  1
  H  H9  1  0.44820000  0.44790000  0.70680000  1
  H  H10  1  0.46870000  0.58780000  0.21320000  1
  H  H11  1  0.46890000  0.54770000  0.81880000  1
  H  H12  1  0.53110000  0.04770000  0.68120000  1
  H  H13  1  0.53130000  0.08780000  0.28680000  1
  H  H14  1  0.55180000  0.94790000  0.79320000  1
  H  H15  1  0.55190000  0.98150000  0.17980000  1
  H  H16  1  0.94810000  0.01850000  0.67980000  1
  H  H17  1  0.94820000  0.05210000  0.29320000  1
  H  H18  1  0.96870000  0.91220000  0.78680000  1
  H  H19  1  0.96890000  0.95230000  0.18120000  1
  C  C20  1  0.06980000  0.00400000  0.70250000  1
  C  C21  1  0.06990000  0.03910000  0.26980000  1
  C  C22  1  0.08230000  0.94060000  0.76650000  1
  C  C23  1  0.08290000  0.97770000  0.20390000  1
  C  C24  1  0.22210000  0.12050000  0.60460000  1
  C  C25  1  0.22420000  0.14620000  0.37580000  1
  C  C26  1  0.23780000  0.08260000  0.30250000  1
  C  C27  1  0.23850000  0.04740000  0.67040000  1
  C  C28  1  0.26150000  0.95260000  0.17040000  1
  C  C29  1  0.26220000  0.91740000  0.80250000  1
  C  C30  1  0.27580000  0.85380000  0.87580000  1
  C  C31  1  0.27790000  0.87950000  0.10460000  1
  C  C32  1  0.41710000  0.02230000  0.70390000  1
  C  C33  1  0.41770000  0.05940000  0.26650000  1
  C  C34  1  0.43010000  0.96090000  0.76980000  1
  C  C35  1  0.43020000  0.99600000  0.20250000  1
  C  C36  1  0.56980000  0.49600000  0.29750000  1
  C  C37  1  0.56990000  0.46090000  0.73020000  1
  C  C38  1  0.58230000  0.55940000  0.23350000  1
  C  C39  1  0.58290000  0.52230000  0.79610000  1
  C  C40  1  0.72210000  0.37950000  0.39540000  1
  C  C41  1  0.72420000  0.35380000  0.62420000  1
  C  C42  1  0.73780000  0.41740000  0.69750000  1
  C  C43  1  0.73850000  0.45260000  0.32960000  1
  C  C44  1  0.76150000  0.54740000  0.82960000  1
  C  C45  1  0.76220000  0.58260000  0.19750000  1
  C  C46  1  0.77580000  0.64620000  0.12420000  1
  C  C47  1  0.77790000  0.62050000  0.89540000  1
  C  C48  1  0.91710000  0.47770000  0.29610000  1
  C  C49  1  0.91770000  0.44060000  0.73350000  1
  C  C50  1  0.93010000  0.53910000  0.23020000  1
  C  C51  1  0.93020000  0.50400000  0.79750000  1
  O  O52  1  0.05590000  0.16600000  0.40530000  1
  O  O53  1  0.05630000  0.14280000  0.57850000  1
  O  O54  1  0.11640000  0.84260000  0.07620000  1
  O  O55  1  0.11720000  0.81930000  0.90310000  1
  O  O56  1  0.21770000  0.30880000  0.50580000  1
  O  O57  1  0.28230000  0.69120000  0.00580000  1
  O  O58  1  0.38280000  0.18070000  0.40310000  1
  O  O59  1  0.38360000  0.15740000  0.57620000  1
  O  O60  1  0.44370000  0.85720000  0.07850000  1
  O  O61  1  0.44410000  0.83400000  0.90530000  1
  O  O62  1  0.55590000  0.33400000  0.59470000  1
  O  O63  1  0.55630000  0.35720000  0.42150000  1
  O  O64  1  0.61640000  0.65740000  0.92380000  1
  O  O65  1  0.61720000  0.68070000  0.09690000  1
  O  O66  1  0.71770000  0.19120000  0.49420000  1
  O  O67  1  0.78230000  0.80880000  0.99420000  1
  O  O68  1  0.88280000  0.31930000  0.59690000  1
  O  O69  1  0.88360000  0.34260000  0.42380000  1
  O  O70  1  0.94370000  0.64280000  0.92150000  1
  O  O71  1  0.94410000  0.66600000  0.09470000  1
