# generated using pymatgen
data_Zn4H48C54O25
_symmetry_space_group_name_H-M   'P 1'
_cell_length_a   16.82890000
_cell_length_b   16.96250000
_cell_length_c   17.03410000
_cell_angle_alpha   94.81200000
_cell_angle_beta   95.54900000
_cell_angle_gamma   91.60900000
_symmetry_Int_Tables_number   1
_chemical_formula_structural   Zn4H48C54O25
_chemical_formula_sum   'Zn8 H96 C108 O50'
_cell_volume   4819.50088326
_cell_formula_units_Z   2
loop_
 _symmetry_equiv_pos_site_id
 _symmetry_equiv_pos_as_xyz
  1  'x, y, z'
loop_
 _atom_site_type_symbol
 _atom_site_label
 _atom_site_symmetry_multiplicity
 _atom_site_fract_x
 _atom_site_fract_y
 _atom_site_fract_z
 _atom_site_occupancy
  Zn  Zn0  1  0.18474000  0.35198000  0.22890000  1
  Zn  Zn1  1  0.22972000  0.22488000  0.35457000  1
  Zn  Zn2  1  0.32934000  0.23404000  0.21228000  1
  Zn  Zn3  1  0.34782000  0.36496000  0.35456000  1
  Zn  Zn4  1  0.65218000  0.63504000  0.64544000  1
  Zn  Zn5  1  0.67066000  0.76596000  0.78772000  1
  Zn  Zn6  1  0.77028000  0.77512000  0.64543000  1
  Zn  Zn7  1  0.81526000  0.64802000  0.77110000  1
  H  H8  1  0.01920000  0.84730000  0.62970000  1
  H  H9  1  0.02420000  0.62130000  0.68480000  1
  H  H10  1  0.04050000  0.42570000  0.82080000  1
  H  H11  1  0.06000000  0.74090000  0.17640000  1
  H  H12  1  0.06050000  0.36420000  0.88280000  1
  H  H13  1  0.08350000  0.67880000  0.23690000  1
  H  H14  1  0.09070000  0.45270000  0.90140000  1
  H  H15  1  0.09610000  0.93140000  0.57370000  1
  H  H16  1  0.10410000  0.52190000  0.68210000  1
  H  H17  1  0.10570000  0.66550000  0.14960000  1
  H  H18  1  0.10620000  0.95800000  0.66460000  1
  H  H19  1  0.11950000  0.55750000  0.77040000  1
  H  H20  1  0.12130000  0.18990000  0.65670000  1
  H  H21  1  0.13550000  0.13300000  0.72420000  1
  H  H22  1  0.16960000  0.37720000  0.98020000  1
  H  H23  1  0.17080000  0.98390000  0.61050000  1
  H  H24  1  0.18320000  0.50430000  0.73310000  1
  H  H25  1  0.18490000  0.59330000  0.23420000  1
  H  H26  1  0.18790000  0.90010000  0.44060000  1
  H  H27  1  0.19640000  0.13720000  0.66050000  1
  H  H28  1  0.22420000  0.23210000  0.58830000  1
  H  H29  1  0.22620000  0.83800000  0.49480000  1
  H  H30  1  0.25290000  0.64240000  0.42810000  1
  H  H31  1  0.26520000  0.98820000  0.37770000  1
  H  H32  1  0.27360000  0.85170000  0.90720000  1
  H  H33  1  0.27550000  0.91450000  0.48080000  1
  H  H34  1  0.32380000  0.61350000  0.48380000  1
  H  H35  1  0.32740000  0.69900000  0.45560000  1
  H  H36  1  0.33290000  0.89620000  0.05100000  1
  H  H37  1  0.33790000  0.98290000  0.15910000  1
  H  H38  1  0.33900000  0.78980000  0.89210000  1
  H  H39  1  0.34580000  0.55680000  0.69610000  1
  H  H40  1  0.34600000  0.87380000  0.86090000  1
  H  H41  1  0.34870000  0.43920000  0.60570000  1
  H  H42  1  0.39170000  0.82850000  0.03250000  1
  H  H43  1  0.39240000  0.29490000  0.98880000  1
  H  H44  1  0.40970000  0.57160000  0.76960000  1
  H  H45  1  0.41200000  0.68540000  0.57100000  1
  H  H46  1  0.41920000  0.60200000  0.31270000  1
  H  H47  1  0.42130000  0.78720000  0.79430000  1
  H  H48  1  0.42130000  0.90270000  0.09020000  1
  H  H49  1  0.42820000  0.51580000  0.69600000  1
  H  H50  1  0.44310000  0.24170000  0.64730000  1
  H  H51  1  0.46300000  0.22220000  0.90160000  1
  H  H52  1  0.47080000  0.32070000  0.69810000  1
  H  H53  1  0.48130000  0.74250000  0.15640000  1
  H  H54  1  0.49600000  0.30490000  0.61210000  1
  H  H55  1  0.49840000  0.69240000  0.07870000  1
  H  H56  1  0.50160000  0.30760000  0.92130000  1
  H  H57  1  0.50400000  0.69510000  0.38790000  1
  H  H58  1  0.51870000  0.25750000  0.84360000  1
  H  H59  1  0.52920000  0.67930000  0.30190000  1
  H  H60  1  0.53700000  0.77780000  0.09840000  1
  H  H61  1  0.55690000  0.75830000  0.35270000  1
  H  H62  1  0.57180000  0.48420000  0.30400000  1
  H  H63  1  0.57870000  0.09730000  0.90980000  1
  H  H64  1  0.57870000  0.21280000  0.20570000  1
  H  H65  1  0.58080000  0.39800000  0.68730000  1
  H  H66  1  0.58800000  0.31460000  0.42900000  1
  H  H67  1  0.59030000  0.42840000  0.23040000  1
  H  H68  1  0.60760000  0.70510000  0.01120000  1
  H  H69  1  0.60830000  0.17150000  0.96750000  1
  H  H70  1  0.65130000  0.56080000  0.39430000  1
  H  H71  1  0.65400000  0.12620000  0.13910000  1
  H  H72  1  0.65420000  0.44320000  0.30390000  1
  H  H73  1  0.66100000  0.21020000  0.10790000  1
  H  H74  1  0.66210000  0.01710000  0.84090000  1
  H  H75  1  0.66710000  0.10380000  0.94900000  1
  H  H76  1  0.67260000  0.30100000  0.54440000  1
  H  H77  1  0.67620000  0.38650000  0.51620000  1
  H  H78  1  0.72450000  0.08550000  0.51920000  1
  H  H79  1  0.72640000  0.14830000  0.09280000  1
  H  H80  1  0.73480000  0.01180000  0.62230000  1
  H  H81  1  0.74710000  0.35760000  0.57190000  1
  H  H82  1  0.77380000  0.16200000  0.50520000  1
  H  H83  1  0.77580000  0.76790000  0.41170000  1
  H  H84  1  0.80360000  0.86280000  0.33950000  1
  H  H85  1  0.81210000  0.09990000  0.55940000  1
  H  H86  1  0.81510000  0.40670000  0.76580000  1
  H  H87  1  0.81680000  0.49570000  0.26690000  1
  H  H88  1  0.82920000  0.01610000  0.38950000  1
  H  H89  1  0.83040000  0.62280000  0.01980000  1
  H  H90  1  0.86450000  0.86700000  0.27580000  1
  H  H91  1  0.87870000  0.81010000  0.34330000  1
  H  H92  1  0.88050000  0.44250000  0.22960000  1
  H  H93  1  0.89380000  0.04200000  0.33540000  1
  H  H94  1  0.89430000  0.33450000  0.85040000  1
  H  H95  1  0.89590000  0.47810000  0.31790000  1
  H  H96  1  0.90390000  0.06860000  0.42630000  1
  H  H97  1  0.90930000  0.54730000  0.09860000  1
  H  H98  1  0.91650000  0.32120000  0.76310000  1
  H  H99  1  0.93950000  0.63580000  0.11720000  1
  H  H100  1  0.94000000  0.25910000  0.82360000  1
  H  H101  1  0.95950000  0.57430000  0.17920000  1
  H  H102  1  0.97580000  0.37870000  0.31520000  1
  H  H103  1  0.98080000  0.15270000  0.37030000  1
  C  C104  1  0.01010000  0.73410000  0.65720000  1
  C  C105  1  0.04830000  0.80360000  0.64240000  1
  C  C106  1  0.05140000  0.66760000  0.67560000  1
  C  C107  1  0.07910000  0.26920000  0.34530000  1
  C  C108  1  0.08000000  0.41020000  0.86050000  1
  C  C109  1  0.09980000  0.70450000  0.19270000  1
  C  C110  1  0.13090000  0.80660000  0.64680000  1
  C  C111  1  0.13390000  0.94210000  0.61950000  1
  C  C112  1  0.13430000  0.67150000  0.68000000  1
  C  C113  1  0.14410000  0.54330000  0.72290000  1
  C  C114  1  0.16110000  0.16720000  0.69140000  1
  C  C115  1  0.17500000  0.74130000  0.66450000  1
  C  C116  1  0.21410000  0.36240000  0.95490000  1
  C  C117  1  0.21560000  0.36850000  0.87340000  1
  C  C118  1  0.23280000  0.62210000  0.24800000  1
  C  C119  1  0.23650000  0.87500000  0.45700000  1
  C  C120  1  0.23810000  0.70260000  0.24140000  1
  C  C121  1  0.24400000  0.28320000  0.70100000  1
  C  C122  1  0.24830000  0.27560000  0.61940000  1
  C  C123  1  0.26370000  0.74380000  0.66920000  1
  C  C124  1  0.27670000  0.32020000  0.08160000  1
  C  C125  1  0.27960000  0.33400000  0.99640000  1
  C  C126  1  0.28050000  0.95940000  0.33310000  1
  C  C127  1  0.28080000  0.34720000  0.74820000  1
  C  C128  1  0.28170000  0.34870000  0.83560000  1
  C  C129  1  0.28400000  0.87810000  0.33000000  1
  C  C130  1  0.28930000  0.33400000  0.58550000  1
  C  C131  1  0.29290000  0.65820000  0.47100000  1
  C  C132  1  0.29310000  0.08610000  0.27160000  1
  C  C133  1  0.29520000  0.49910000  0.28880000  1
  C  C134  1  0.29600000  0.32270000  0.49830000  1
  C  C135  1  0.30040000  0.99740000  0.26760000  1
  C  C136  1  0.30100000  0.58570000  0.27570000  1
  C  C137  1  0.30320000  0.71210000  0.60670000  1
  C  C138  1  0.30820000  0.74730000  0.26200000  1
  C  C139  1  0.30890000  0.77120000  0.73930000  1
  C  C140  1  0.30950000  0.83190000  0.87040000  1
  C  C141  1  0.30970000  0.83450000  0.26380000  1
  C  C142  1  0.31990000  0.40640000  0.71220000  1
  C  C143  1  0.32340000  0.39960000  0.62990000  1
  C  C144  1  0.32460000  0.95630000  0.20190000  1
  C  C145  1  0.32900000  0.87520000  0.20000000  1
  C  C146  1  0.34820000  0.31360000  0.95990000  1
  C  C147  1  0.34870000  0.32190000  0.88000000  1
  C  C148  1  0.37360000  0.62780000  0.29560000  1
  C  C149  1  0.37660000  0.70860000  0.28920000  1
  C  C150  1  0.37670000  0.86700000  0.07250000  1
  C  C151  1  0.38630000  0.70660000  0.61340000  1
  C  C152  1  0.38720000  0.53330000  0.72820000  1
  C  C153  1  0.39160000  0.76740000  0.74750000  1
  C  C154  1  0.42930000  0.73320000  0.68420000  1
  C  C155  1  0.47930000  0.26960000  0.87950000  1
  C  C156  1  0.48200000  0.27660000  0.30470000  1
  C  C157  1  0.48570000  0.28090000  0.65940000  1
  C  C158  1  0.51430000  0.71910000  0.34060000  1
  C  C159  1  0.51800000  0.72340000  0.69530000  1
  C  C160  1  0.52070000  0.73040000  0.12050000  1
  C  C161  1  0.57070000  0.26680000  0.31580000  1
  C  C162  1  0.60840000  0.23260000  0.25250000  1
  C  C163  1  0.61280000  0.46670000  0.27180000  1
  C  C164  1  0.61370000  0.29340000  0.38660000  1
  C  C165  1  0.62330000  0.13300000  0.92750000  1
  C  C166  1  0.62340000  0.29140000  0.71080000  1
  C  C167  1  0.62640000  0.37220000  0.70440000  1
  C  C168  1  0.65130000  0.67810000  0.12000000  1
  C  C169  1  0.65180000  0.68640000  0.04010000  1
  C  C170  1  0.67100000  0.12480000  0.80000000  1
  C  C171  1  0.67540000  0.04370000  0.79810000  1
  C  C172  1  0.67660000  0.60040000  0.37010000  1
  C  C173  1  0.68010000  0.59360000  0.28780000  1
  C  C174  1  0.69030000  0.16550000  0.73620000  1
  C  C175  1  0.69050000  0.16810000  0.12960000  1
  C  C176  1  0.69110000  0.22880000  0.26070000  1
  C  C177  1  0.69180000  0.25270000  0.73800000  1
  C  C178  1  0.69680000  0.28790000  0.39330000  1
  C  C179  1  0.69900000  0.41430000  0.72430000  1
  C  C180  1  0.69960000  0.00260000  0.73240000  1
  C  C181  1  0.70400000  0.67730000  0.50170000  1
  C  C182  1  0.70480000  0.50090000  0.71120000  1
  C  C183  1  0.70690000  0.91390000  0.72840000  1
  C  C184  1  0.70710000  0.34180000  0.52900000  1
  C  C185  1  0.71070000  0.66600000  0.41450000  1
  C  C186  1  0.71600000  0.12190000  0.67000000  1
  C  C187  1  0.71830000  0.65130000  0.16440000  1
  C  C188  1  0.71920000  0.65280000  0.25180000  1
  C  C189  1  0.71950000  0.04060000  0.66690000  1
  C  C190  1  0.72040000  0.66600000  0.00360000  1
  C  C191  1  0.72330000  0.67980000  0.91840000  1
  C  C192  1  0.73630000  0.25620000  0.33080000  1
  C  C193  1  0.75170000  0.72440000  0.38060000  1
  C  C194  1  0.75600000  0.71680000  0.29900000  1
  C  C195  1  0.76190000  0.29740000  0.75860000  1
  C  C196  1  0.76350000  0.12500000  0.54300000  1
  C  C197  1  0.76720000  0.37790000  0.75200000  1
  C  C198  1  0.78440000  0.63150000  0.12660000  1
  C  C199  1  0.78590000  0.63760000  0.04510000  1
  C  C200  1  0.82500000  0.25870000  0.33550000  1
  C  C201  1  0.83890000  0.83280000  0.30860000  1
  C  C202  1  0.85590000  0.45670000  0.27710000  1
  C  C203  1  0.86570000  0.32850000  0.32000000  1
  C  C204  1  0.86610000  0.05790000  0.38050000  1
  C  C205  1  0.86910000  0.19340000  0.35320000  1
  C  C206  1  0.90020000  0.29550000  0.80730000  1
  C  C207  1  0.92000000  0.58980000  0.13950000  1
  C  C208  1  0.92090000  0.73080000  0.65470000  1
  C  C209  1  0.94860000  0.33240000  0.32440000  1
  C  C210  1  0.95170000  0.19640000  0.35760000  1
  C  C211  1  0.98990000  0.26590000  0.34280000  1
  O  O212  1  0.11418000  0.33310000  0.33370000  1
  O  O213  1  0.11656000  0.20790000  0.36000000  1
  O  O214  1  0.15212000  0.39220000  0.82515000  1
  O  O215  1  0.17310000  0.74605000  0.21490000  1
  O  O216  1  0.17641000  0.87287000  0.63390000  1
  O  O217  1  0.18197000  0.61153000  0.69800000  1
  O  O218  1  0.20590000  0.22890000  0.74016000  1
  O  O219  1  0.22890000  0.46401000  0.27570000  1
  O  O220  1  0.23342000  0.36225000  0.12163000  1
  O  O221  1  0.25476000  0.68790000  0.53937000  1
  O  O222  1  0.26500000  0.80270000  0.79753000  1
  O  O223  1  0.26630000  0.83396000  0.38940000  1
  O  O224  1  0.27213000  0.11976000  0.33289000  1
  O  O225  1  0.27250000  0.25639000  0.46427000  1
  O  O226  1  0.27379000  0.29606000  0.28625000  1
  O  O227  1  0.31120000  0.11931000  0.21151000  1
  O  O228  1  0.31902000  0.26530000  0.10674000  1
  O  O229  1  0.32541000  0.37876000  0.46580000  1
  O  O230  1  0.35310000  0.82765000  0.13773000  1
  O  O231  1  0.35410000  0.46674000  0.76252000  1
  O  O232  1  0.35890000  0.46897000  0.31675000  1
  O  O233  1  0.41120000  0.30190000  0.83753000  1
  O  O234  1  0.44393000  0.75567000  0.30990000  1
  O  O235  1  0.44563000  0.24480000  0.24263000  1
  O  O236  1  0.45349000  0.31764000  0.35955000  1
  O  O237  1  0.54651000  0.68236000  0.64045000  1
  O  O238  1  0.55437000  0.75520000  0.75737000  1
  O  O239  1  0.55607000  0.24433000  0.69010000  1
  O  O240  1  0.58880000  0.69810000  0.16247000  1
  O  O241  1  0.64110000  0.53103000  0.68325000  1
  O  O242  1  0.64590000  0.53326000  0.23748000  1
  O  O243  1  0.64690000  0.17235000  0.86227000  1
  O  O244  1  0.67459000  0.62124000  0.53420000  1
  O  O245  1  0.68098000  0.73470000  0.89326000  1
  O  O246  1  0.68880000  0.88069000  0.78849000  1
  O  O247  1  0.72621000  0.70394000  0.71375000  1
  O  O248  1  0.72750000  0.74361000  0.53573000  1
  O  O249  1  0.72787000  0.88024000  0.66711000  1
  O  O250  1  0.73370000  0.16604000  0.61060000  1
  O  O251  1  0.73500000  0.19730000  0.20247000  1
  O  O252  1  0.74524000  0.31210000  0.46063000  1
  O  O253  1  0.76658000  0.63775000  0.87837000  1
  O  O254  1  0.77110000  0.53599000  0.72430000  1
  O  O255  1  0.79410000  0.77110000  0.25984000  1
  O  O256  1  0.81803000  0.38847000  0.30200000  1
  O  O257  1  0.82359000  0.12713000  0.36610000  1
  O  O258  1  0.82690000  0.25395000  0.78510000  1
  O  O259  1  0.84788000  0.60780000  0.17485000  1
  O  O260  1  0.88344000  0.79210000  0.64000000  1
  O  O261  1  0.88582000  0.66690000  0.66630000  1
