# generated using pymatgen
data_Zn2H10C22NO8
_symmetry_space_group_name_H-M   'P 1'
_cell_length_a   12.49570000
_cell_length_b   15.31630000
_cell_length_c   24.25400000
_cell_angle_alpha   90.00000000
_cell_angle_beta   102.30400000
_cell_angle_gamma   90.00000000
_symmetry_Int_Tables_number   1
_chemical_formula_structural   Zn2H10C22NO8
_chemical_formula_sum   'Zn8 H40 C88 N4 O32'
_cell_volume   4535.30018433
_cell_formula_units_Z   4
loop_
 _symmetry_equiv_pos_site_id
 _symmetry_equiv_pos_as_xyz
  1  'x, y, z'
loop_
 _atom_site_type_symbol
 _atom_site_label
 _atom_site_symmetry_multiplicity
 _atom_site_fract_x
 _atom_site_fract_y
 _atom_site_fract_z
 _atom_site_occupancy
  Zn  Zn0  1  0.34189000  0.67874000  0.26134000  1
  Zn  Zn1  1  0.34189000  0.82126000  0.76134000  1
  Zn  Zn2  1  0.47108000  0.03079000  0.14365000  1
  Zn  Zn3  1  0.47108000  0.46921000  0.64365000  1
  Zn  Zn4  1  0.52892000  0.53079000  0.35635000  1
  Zn  Zn5  1  0.52892000  0.96921000  0.85635000  1
  Zn  Zn6  1  0.65811000  0.17874000  0.23866000  1
  Zn  Zn7  1  0.65811000  0.32126000  0.73866000  1
  H  H8  1  0.04940000  0.69770000  0.38880000  1
  H  H9  1  0.04940000  0.80230000  0.88880000  1
  H  H10  1  0.05980000  0.22420000  0.14490000  1
  H  H11  1  0.05980000  0.27580000  0.64490000  1
  H  H12  1  0.14520000  0.02040000  0.57060000  1
  H  H13  1  0.14520000  0.47960000  0.07060000  1
  H  H14  1  0.14630000  0.59000000  0.02200000  1
  H  H15  1  0.14630000  0.91000000  0.52200000  1
  H  H16  1  0.18570000  0.74320000  0.55400000  1
  H  H17  1  0.18570000  0.75680000  0.05400000  1
  H  H18  1  0.19200000  0.02890000  0.67550000  1
  H  H19  1  0.19200000  0.47110000  0.17550000  1
  H  H20  1  0.21790000  0.73150000  0.89380000  1
  H  H21  1  0.21790000  0.76850000  0.39380000  1
  H  H22  1  0.22160000  0.22950000  0.11940000  1
  H  H23  1  0.22160000  0.27050000  0.61940000  1
  H  H24  1  0.40190000  0.59500000  0.49570000  1
  H  H25  1  0.40190000  0.90500000  0.99570000  1
  H  H26  1  0.43740000  0.18230000  0.75410000  1
  H  H27  1  0.43740000  0.31770000  0.25410000  1
  H  H28  1  0.56260000  0.68230000  0.74590000  1
  H  H29  1  0.56260000  0.81770000  0.24590000  1
  H  H30  1  0.59810000  0.09500000  0.00430000  1
  H  H31  1  0.59810000  0.40500000  0.50430000  1
  H  H32  1  0.77840000  0.72950000  0.38060000  1
  H  H33  1  0.77840000  0.77050000  0.88060000  1
  H  H34  1  0.78210000  0.23150000  0.60620000  1
  H  H35  1  0.78210000  0.26850000  0.10620000  1
  H  H36  1  0.80800000  0.52890000  0.82450000  1
  H  H37  1  0.80800000  0.97110000  0.32450000  1
  H  H38  1  0.81430000  0.24320000  0.94600000  1
  H  H39  1  0.81430000  0.25680000  0.44600000  1
  H  H40  1  0.85370000  0.09000000  0.47800000  1
  H  H41  1  0.85370000  0.41000000  0.97800000  1
  H  H42  1  0.85480000  0.52040000  0.92940000  1
  H  H43  1  0.85480000  0.97960000  0.42940000  1
  H  H44  1  0.94020000  0.72420000  0.35510000  1
  H  H45  1  0.94020000  0.77580000  0.85510000  1
  H  H46  1  0.95060000  0.19770000  0.11120000  1
  H  H47  1  0.95060000  0.30230000  0.61120000  1
  C  C48  1  0.00032000  0.03996000  0.51725000  1
  C  C49  1  0.00032000  0.46004000  0.01725000  1
  C  C50  1  0.00160000  0.19240000  0.58502000  1
  C  C51  1  0.00160000  0.30760000  0.08502000  1
  C  C52  1  0.08682000  0.60032000  0.99237000  1
  C  C53  1  0.08682000  0.89968000  0.49237000  1
  C  C54  1  0.08692000  0.05937000  0.56228000  1
  C  C55  1  0.08692000  0.44063000  0.06228000  1
  C  C56  1  0.08765000  0.67413000  0.95968000  1
  C  C57  1  0.08765000  0.82587000  0.45968000  1
  C  C58  1  0.09056000  0.13272000  0.59489000  1
  C  C59  1  0.09056000  0.36728000  0.09489000  1
  C  C60  1  0.18299000  0.73629000  0.97138000  1
  C  C61  1  0.18299000  0.76371000  0.47138000  1
  C  C62  1  0.18947000  0.14869000  0.64096000  1
  C  C63  1  0.18947000  0.35131000  0.14096000  1
  C  C64  1  0.21790000  0.72622000  0.52448000  1
  C  C65  1  0.21790000  0.77378000  0.02448000  1
  C  C66  1  0.22850000  0.08222000  0.67842000  1
  C  C67  1  0.22850000  0.41778000  0.17842000  1
  C  C68  1  0.23720000  0.74115000  0.42879000  1
  C  C69  1  0.23720000  0.75885000  0.92879000  1
  C  C70  1  0.24600000  0.22611000  0.64511000  1
  C  C71  1  0.24600000  0.27389000  0.14511000  1
  C  C72  1  0.30090000  0.66338000  0.53392000  1
  C  C73  1  0.30090000  0.83662000  0.03392000  1
  C  C74  1  0.31930000  0.67875000  0.43764000  1
  C  C75  1  0.31930000  0.82125000  0.93764000  1
  C  C76  1  0.32272000  0.09475000  0.72071000  1
  C  C77  1  0.32272000  0.40525000  0.22071000  1
  C  C78  1  0.33720000  0.61977000  0.59084000  1
  C  C79  1  0.33720000  0.88023000  0.09084000  1
  C  C80  1  0.33990000  0.23921000  0.68750000  1
  C  C81  1  0.33990000  0.26079000  0.18750000  1
  C  C82  1  0.34910000  0.63875000  0.49009000  1
  C  C83  1  0.34910000  0.86125000  0.99009000  1
  C  C84  1  0.36600000  0.02230000  0.76012000  1
  C  C85  1  0.36600000  0.47770000  0.26012000  1
  C  C86  1  0.37170000  0.65130000  0.39050000  1
  C  C87  1  0.37170000  0.84870000  0.89050000  1
  C  C88  1  0.37620000  0.17345000  0.72529000  1
  C  C89  1  0.37620000  0.32655000  0.22529000  1
  C  C90  1  0.40450000  0.17772000  0.18945000  1
  C  C91  1  0.40450000  0.32228000  0.68945000  1
  C  C92  1  0.59550000  0.67772000  0.31055000  1
  C  C93  1  0.59550000  0.82228000  0.81055000  1
  C  C94  1  0.62380000  0.67345000  0.77471000  1
  C  C95  1  0.62380000  0.82655000  0.27471000  1
  C  C96  1  0.62830000  0.15130000  0.10950000  1
  C  C97  1  0.62830000  0.34870000  0.60950000  1
  C  C98  1  0.63400000  0.52230000  0.73988000  1
  C  C99  1  0.63400000  0.97770000  0.23988000  1
  C  C100  1  0.65090000  0.13875000  0.00991000  1
  C  C101  1  0.65090000  0.36125000  0.50991000  1
  C  C102  1  0.66010000  0.73921000  0.81250000  1
  C  C103  1  0.66010000  0.76079000  0.31250000  1
  C  C104  1  0.66280000  0.11977000  0.90916000  1
  C  C105  1  0.66280000  0.38023000  0.40916000  1
  C  C106  1  0.67728000  0.59475000  0.77929000  1
  C  C107  1  0.67728000  0.90525000  0.27929000  1
  C  C108  1  0.68070000  0.17875000  0.06236000  1
  C  C109  1  0.68070000  0.32125000  0.56236000  1
  C  C110  1  0.69910000  0.16338000  0.96608000  1
  C  C111  1  0.69910000  0.33662000  0.46608000  1
  C  C112  1  0.75400000  0.72611000  0.85489000  1
  C  C113  1  0.75400000  0.77389000  0.35489000  1
  C  C114  1  0.76280000  0.24115000  0.07121000  1
  C  C115  1  0.76280000  0.25885000  0.57121000  1
  C  C116  1  0.77150000  0.58222000  0.82158000  1
  C  C117  1  0.77150000  0.91778000  0.32158000  1
  C  C118  1  0.78210000  0.22622000  0.97552000  1
  C  C119  1  0.78210000  0.27378000  0.47552000  1
  C  C120  1  0.81053000  0.64869000  0.85904000  1
  C  C121  1  0.81053000  0.85131000  0.35904000  1
  C  C122  1  0.81701000  0.23629000  0.52862000  1
  C  C123  1  0.81701000  0.26371000  0.02862000  1
  C  C124  1  0.90944000  0.63272000  0.90511000  1
  C  C125  1  0.90944000  0.86728000  0.40511000  1
  C  C126  1  0.91235000  0.17413000  0.54032000  1
  C  C127  1  0.91235000  0.32587000  0.04032000  1
  C  C128  1  0.91308000  0.55937000  0.93772000  1
  C  C129  1  0.91308000  0.94063000  0.43772000  1
  C  C130  1  0.91318000  0.10032000  0.50763000  1
  C  C131  1  0.91318000  0.39968000  0.00763000  1
  C  C132  1  0.99840000  0.69240000  0.91498000  1
  C  C133  1  0.99840000  0.80760000  0.41498000  1
  C  C134  1  0.99968000  0.53996000  0.98275000  1
  C  C135  1  0.99968000  0.96004000  0.48275000  1
  N  N136  1  0.00430000  0.23393000  0.11780000  1
  N  N137  1  0.00430000  0.26607000  0.61780000  1
  N  N138  1  0.99570000  0.73393000  0.38220000  1
  N  N139  1  0.99570000  0.76607000  0.88220000  1
  O  O140  1  0.31470000  0.54711000  0.25678000  1
  O  O141  1  0.31470000  0.95289000  0.75678000  1
  O  O142  1  0.31720000  0.65324000  0.63388000  1
  O  O143  1  0.31720000  0.84676000  0.13388000  1
  O  O144  1  0.35570000  0.69544000  0.34716000  1
  O  O145  1  0.35570000  0.80456000  0.84716000  1
  O  O146  1  0.37003000  0.12233000  0.15150000  1
  O  O147  1  0.37003000  0.37767000  0.65150000  1
  O  O148  1  0.38909000  0.54908000  0.58884000  1
  O  O149  1  0.38909000  0.95092000  0.08884000  1
  O  O150  1  0.42975000  0.58237000  0.39928000  1
  O  O151  1  0.42975000  0.91763000  0.89928000  1
  O  O152  1  0.45556000  0.03859000  0.79452000  1
  O  O153  1  0.45556000  0.46141000  0.29452000  1
  O  O154  1  0.48737000  0.16775000  0.22820000  1
  O  O155  1  0.48737000  0.33225000  0.72820000  1
  O  O156  1  0.51263000  0.66775000  0.27180000  1
  O  O157  1  0.51263000  0.83225000  0.77180000  1
  O  O158  1  0.54444000  0.53859000  0.70548000  1
  O  O159  1  0.54444000  0.96141000  0.20548000  1
  O  O160  1  0.57025000  0.08237000  0.10072000  1
  O  O161  1  0.57025000  0.41763000  0.60072000  1
  O  O162  1  0.61091000  0.04908000  0.91116000  1
  O  O163  1  0.61091000  0.45092000  0.41116000  1
  O  O164  1  0.62997000  0.62233000  0.34850000  1
  O  O165  1  0.62997000  0.87767000  0.84850000  1
  O  O166  1  0.64430000  0.19544000  0.15284000  1
  O  O167  1  0.64430000  0.30456000  0.65284000  1
  O  O168  1  0.68280000  0.15324000  0.86612000  1
  O  O169  1  0.68280000  0.34676000  0.36612000  1
  O  O170  1  0.68530000  0.04711000  0.24322000  1
  O  O171  1  0.68530000  0.45289000  0.74322000  1
