# generated using pymatgen
data_Mn3H57C51N8O9
_symmetry_space_group_name_H-M   'P 1'
_cell_length_a   17.49930000
_cell_length_b   30.19700000
_cell_length_c   30.19697859
_cell_angle_alpha   85.18402384
_cell_angle_beta   73.15693417
_cell_angle_gamma   73.15680000
_symmetry_Int_Tables_number   1
_chemical_formula_structural   Mn3H57C51N8O9
_chemical_formula_sum   'Mn24 H456 C408 N64 O72'
_cell_volume   14617.19656877
_cell_formula_units_Z   8
loop_
 _symmetry_equiv_pos_site_id
 _symmetry_equiv_pos_as_xyz
  1  'x, y, z'
loop_
 _atom_site_type_symbol
 _atom_site_label
 _atom_site_symmetry_multiplicity
 _atom_site_fract_x
 _atom_site_fract_y
 _atom_site_fract_z
 _atom_site_occupancy
  Mn  Mn0  1  0.13164000  0.91650000  0.85746000  1
  Mn  Mn1  1  0.98910000  0.64254000  0.91650000  1
  Mn  Mn2  1  0.27000000  0.96534000  0.61731000  1
  Mn  Mn3  1  0.45186000  0.14254000  0.41650000  1
  Mn  Mn4  1  0.88732000  0.88269000  0.96533000  1
  Mn  Mn5  1  0.79844000  0.42026000  0.00308000  1
  Mn  Mn6  1  0.71870000  0.00308000  0.07974000  1
  Mn  Mn7  1  0.19848000  0.50308000  0.57974000  1
  Mn  Mn8  1  0.85266000  0.53466000  0.88269000  1
  Mn  Mn9  1  0.26466000  0.38269000  0.46533000  1
  Mn  Mn10  1  0.22178000  0.07974000  0.49692000  1
  Mn  Mn11  1  0.90560000  0.58350000  0.64254000  1
  Mn  Mn12  1  0.09440000  0.41650000  0.35746000  1
  Mn  Mn13  1  0.77822000  0.92026000  0.50308000  1
  Mn  Mn14  1  0.73534000  0.61731000  0.53467000  1
  Mn  Mn15  1  0.14734000  0.46534000  0.11732000  1
  Mn  Mn16  1  0.80152000  0.49692000  0.42026000  1
  Mn  Mn17  1  0.28130000  0.99692000  0.92026000  1
  Mn  Mn18  1  0.20156000  0.57974000  0.99692000  1
  Mn  Mn19  1  0.11269000  0.11731000  0.03466000  1
  Mn  Mn20  1  0.54814000  0.85746000  0.58350000  1
  Mn  Mn21  1  0.73000000  0.03466000  0.38269000  1
  Mn  Mn22  1  0.01090000  0.35746000  0.08350000  1
  Mn  Mn23  1  0.86836000  0.08350000  0.14254000  1
  H  H24  1  0.73920000  0.41100000  0.25700000  1
  H  H25  1  0.88550000  0.94440000  0.10600000  1
  H  H26  1  0.21790000  0.42950000  0.77290000  1
  H  H27  1  0.97340000  0.24760000  0.01680000  1
  H  H28  1  0.16890000  0.56170000  0.81870000  1
  H  H29  1  0.10540000  0.36240000  0.87900000  1
  H  H30  1  0.19600000  0.22100000  0.78700000  1
  H  H31  1  0.82180000  0.88910000  0.16010000  1
  H  H32  1  0.59190000  0.33910000  0.38910000  1
  H  H33  1  0.40470000  0.07290000  0.57350000  1
  H  H34  1  0.05110000  0.42710000  0.92650000  1
  H  H35  1  0.55350000  0.48870000  0.42350000  1
  H  H36  1  0.32570000  0.09450000  0.65130000  1
  H  H37  1  0.28270000  0.42860000  0.69420000  1
  H  H38  1  0.41730000  0.66740000  0.55700000  1
  H  H39  1  0.72100000  0.01680000  0.25240000  1
  H  H40  1  0.08260000  0.53510000  0.89030000  1
  H  H41  1  0.75490000  0.83280000  0.21700000  1
  H  H42  1  0.34680000  0.13760000  0.62100000  1
  H  H43  1  0.06490000  0.75690000  0.90230000  1
  H  H44  1  0.38360000  0.83540000  0.58240000  1
  H  H45  1  0.82730000  0.30410000  0.13510000  1
  H  H46  1  0.87700000  0.50890000  0.08210000  1
  H  H47  1  0.79280000  0.51660000  0.15760000  1
  H  H48  1  0.83250000  0.85750000  0.11770000  1
  H  H49  1  0.02180000  0.07350000  0.92710000  1
  H  H50  1  0.63840000  0.97600000  0.30240000  1
  H  H51  1  0.70740000  0.48520000  0.23140000  1
  H  H52  1  0.08870000  0.20670000  0.84850000  1
  H  H53  1  0.76420000  0.80380000  0.17280000  1
  H  H54  1  0.99150000  0.39400000  0.94440000  1
  H  H55  1  0.67820000  0.09770000  0.25690000  1
  H  H56  1  0.25920000  0.30380000  0.67280000  1
  H  H57  1  0.57240000  0.44510000  0.35890000  1
  H  H58  1  0.18370000  0.90760000  0.74720000  1
  H  H59  1  0.77790000  0.42570000  0.15170000  1
  H  H60  1  0.02300000  0.15130000  0.90550000  1
  H  H61  1  0.43800000  0.49210000  0.48630000  1
  H  H62  1  0.45060000  0.93380000  0.47080000  1
  H  H63  1  0.07150000  0.40550000  0.84870000  1
  H  H64  1  0.69750000  0.39510000  0.22270000  1
  H  H65  1  0.09300000  0.30580000  0.82500000  1
  H  H66  1  0.88230000  0.10970000  0.03510000  1
  H  H67  1  0.20400000  0.27900000  0.71300000  1
  H  H68  1  0.94080000  0.19760000  0.97600000  1
  H  H69  1  0.25120000  0.63240000  0.66220000  1
  H  H70  1  0.19530000  0.33280000  0.71700000  1
  H  H71  1  0.20460000  0.15150000  0.70670000  1
  H  H72  1  0.32430000  0.77670000  0.58270000  1
  H  H73  1  0.10120000  0.17500000  0.80580000  1
  H  H74  1  0.64060000  0.42860000  0.26540000  1
  H  H75  1  0.27920000  0.70450000  0.62650000  1
  H  H76  1  0.12060000  0.68910000  0.78490000  1
  H  H77  1  0.22380000  0.19420000  0.67500000  1
  H  H78  1  0.03220000  0.12100000  0.86240000  1
  H  H79  1  0.41920000  0.86080000  0.46980000  1
  H  H80  1  0.46800000  0.99110000  0.41790000  1
  H  H81  1  0.08320000  0.47600000  0.80240000  1
  H  H82  1  0.32990000  0.10600000  0.55560000  1
  H  H83  1  0.70440000  0.28980000  0.18080000  1
  H  H84  1  0.85520000  0.56620000  0.02920000  1
  H  H85  1  0.49200000  0.03510000  0.39030000  1
  H  H86  1  0.69030000  0.21510000  0.18910000  1
  H  H87  1  0.88590000  0.08210000  0.99110000  1
  H  H88  1  0.21590000  0.56600000  0.65620000  1
  H  H89  1  0.98190000  0.33990000  0.88910000  1
  H  H90  1  0.46230000  0.31450000  0.40650000  1
  H  H91  1  0.74110000  0.50340000  0.12740000  1
  H  H92  1  0.36090000  0.95490000  0.50590000  1
  H  H93  1  0.28830000  0.71210000  0.57230000  1
  H  H94  1  0.06280000  0.34850000  0.79330000  1
  H  H95  1  0.65370000  0.47350000  0.20150000  1
  H  H96  1  0.92140000  0.02920000  0.93380000  1
  H  H97  1  0.57970000  0.92950000  0.27290000  1
  H  H98  1  0.48330000  0.40250000  0.35810000  1
  H  H99  1  0.93090000  0.75280000  0.90760000  1
  H  H100  1  0.31320000  0.64300000  0.52420000  1
  H  H101  1  0.33030000  0.88080000  0.50640000  1
  H  H102  1  0.19000000  0.11770000  0.64250000  1
  H  H103  1  0.76940000  0.18130000  0.06170000  1
  H  H104  1  0.63140000  0.13510000  0.19590000  1
  H  H105  1  0.11480000  0.68080000  0.71020000  1
  H  H106  1  0.21090000  0.16010000  0.61090000  1
  H  H107  1  0.86680000  0.99410000  0.95490000  1
  H  H108  1  0.13120000  0.90650000  0.68550000  1
  H  H109  1  0.40870000  0.25280000  0.40760000  1
  H  H110  1  0.82170000  0.54510000  0.99410000  1
  H  H111  1  0.38430000  0.59960000  0.42740000  1
  H  H112  1  0.19230000  0.35750000  0.61770000  1
  H  H113  1  0.46700000  0.98340000  0.34240000  1
  H  H114  1  0.95020000  0.38230000  0.85750000  1
  H  H115  1  0.97190000  0.28300000  0.83280000  1
  H  H116  1  0.08300000  0.21300000  0.72100000  1
  H  H117  1  0.28030000  0.57440000  0.52140000  1
  H  H118  1  0.96600000  0.91760000  0.83540000  1
  H  H119  1  0.01700000  0.28700000  0.77900000  1
  H  H120  1  0.14390000  0.29330000  0.65150000  1
  H  H121  1  0.80940000  0.15760000  0.98340000  1
  H  H122  1  0.38020000  0.91100000  0.41120000  1
  H  H123  1  0.70240000  0.58900000  0.08880000  1
  H  H124  1  0.12900000  0.38910000  0.66010000  1
  H  H125  1  0.59450000  0.92860000  0.19420000  1
  H  H126  1  0.71810000  0.34380000  0.06600000  1
  H  H127  1  0.85260000  0.22710000  0.92950000  1
  H  H128  1  0.74980000  0.63920000  0.03020000  1
  H  H129  1  0.70360000  0.15170000  0.07430000  1
  H  H130  1  0.08200000  0.32500000  0.69420000  1
  H  H131  1  0.45070000  0.06170000  0.31870000  1
  H  H132  1  0.06800000  0.17280000  0.69620000  1
  H  H133  1  0.00980000  0.51680000  0.75240000  1
  H  H134  1  0.37620000  0.54340000  0.38240000  1
  H  H135  1  0.15860000  0.85810000  0.59750000  1
  H  H136  1  0.08770000  0.21700000  0.66720000  1
  H  H137  1  0.88900000  0.03020000  0.86080000  1
  H  H138  1  0.61640000  0.33780000  0.13240000  1
  H  H139  1  0.29960000  0.94170000  0.44710000  1
  H  H140  1  0.35550000  0.63620000  0.38980000  1
  H  H141  1  0.37190000  0.99660000  0.37260000  1
  H  H142  1  0.68840000  0.55830000  0.05290000  1
  H  H143  1  0.74450000  0.12740000  0.99660000  1
  H  H144  1  0.93700000  0.32720000  0.80380000  1
  H  H145  1  0.32150000  0.85330000  0.41850000  1
  H  H146  1  0.65020000  0.25700000  0.08900000  1
  H  H147  1  0.03760000  0.63510000  0.69590000  1
  H  H148  1  0.96720000  0.59770000  0.75690000  1
  H  H149  1  0.28800000  0.62660000  0.43540000  1
  H  H150  1  0.81670000  0.81450000  0.90650000  1
  H  H151  1  0.23780000  0.25240000  0.48320000  1
  H  H152  1  0.51630000  0.37350000  0.20450000  1
  H  H153  1  0.64530000  0.47860000  0.07440000  1
  H  H154  1  0.80140000  0.66460000  0.91760000  1
  H  H155  1  0.56190000  0.06600000  0.15620000  1
  H  H156  1  0.83670000  0.99360000  0.88080000  1
  H  H157  1  0.78870000  0.30580000  0.92860000  1
  H  H158  1  0.58540000  0.56460000  0.12660000  1
  H  H159  1  0.49960000  0.42770000  0.21210000  1
  H  H160  1  0.71750000  0.61920000  0.99360000  1
  H  H161  1  0.69260000  0.23140000  0.01480000  1
  H  H162  1  0.49420000  0.18080000  0.21020000  1
  H  H163  1  0.35530000  0.07430000  0.34830000  1
  H  H164  1  0.79140000  0.08880000  0.91100000  1
  H  H165  1  0.25870000  0.55290000  0.44170000  1
  H  H166  1  0.24140000  0.88240000  0.45660000  1
  H  H167  1  0.59260000  0.22270000  0.10490000  1
  H  H168  1  0.42400000  0.01480000  0.26860000  1
  H  H169  1  0.40540000  0.18910000  0.28490000  1
  H  H170  1  0.74670000  0.05290000  0.94170000  1
  H  H171  1  0.54380000  0.47580000  0.14300000  1
  H  H172  1  0.07980000  0.72270000  0.60490000  1
  H  H173  1  0.90700000  0.91730000  0.77670000  1
  H  H174  1  0.01900000  0.88910000  0.66090000  1
  H  H175  1  0.32520000  0.58150000  0.35330000  1
  H  H176  1  0.27590000  0.25690000  0.40230000  1
  H  H177  1  0.39900000  0.41730000  0.27670000  1
  H  H178  1  0.59330000  0.64670000  0.08150000  1
  H  H179  1  0.07980000  0.34870000  0.59450000  1
  H  H180  1  0.14480000  0.70150000  0.52650000  1
  H  H181  1  0.06410000  0.44440000  0.60600000  1
  H  H182  1  0.28890000  0.49360000  0.38080000  1
  H  H183  1  0.09400000  0.76540000  0.57140000  1
  H  H184  1  0.62720000  0.20150000  0.02650000  1
  H  H185  1  0.01560000  0.37900000  0.63760000  1
  H  H186  1  0.40720000  0.08900000  0.24300000  1
  H  H187  1  0.27660000  0.93540000  0.37340000  1
  H  H188  1  0.62390000  0.07440000  0.02140000  1
  H  H189  1  0.07040000  0.65170000  0.57430000  1
  H  H190  1  0.50830000  0.61020000  0.13620000  1
  H  H191  1  0.97430000  0.94300000  0.66740000  1
  H  H192  1  0.56920000  0.26540000  0.07140000  1
  H  H193  1  0.18420000  0.49410000  0.45490000  1
  H  H194  1  0.11440000  0.30240000  0.52400000  1
  H  H195  1  0.26650000  0.19590000  0.36490000  1
  H  H196  1  0.13150000  0.62740000  0.49660000  1
  H  H197  1  0.32870000  0.02650000  0.29850000  1
  H  H198  1  0.19830000  0.02140000  0.42560000  1
  H  H199  1  0.58040000  0.61760000  0.04340000  1
  H  H200  1  0.06870000  0.85890000  0.55490000  1
  H  H201  1  0.20880000  0.58880000  0.41100000  1
  H  H202  1  0.25470000  0.88980000  0.36380000  1
  H  H203  1  0.28100000  0.41760000  0.33540000  1
  H  H204  1  0.45420000  0.13240000  0.16220000  1
  H  H205  1  0.51610000  0.57260000  0.09960000  1
  H  H206  1  0.75610000  0.90250000  0.85810000  1
  H  H207  1  0.90570000  0.87350000  0.70450000  1
  H  H208  1  0.68370000  0.72330000  0.91730000  1
  H  H209  1  0.02240000  0.42650000  0.57290000  1
  H  H210  1  0.90550000  0.71510000  0.68910000  1
  H  H211  1  0.02310000  0.19420000  0.57140000  1
  H  H212  1  0.74000000  0.08150000  0.85330000  1
  H  H213  1  0.00380000  0.75700000  0.58900000  1
  H  H214  1  0.31530000  0.10490000  0.27730000  1
  H  H215  1  0.43100000  0.38910000  0.16090000  1
  H  H216  1  0.83850000  0.59240000  0.75280000  1
  H  H217  1  0.18830000  0.92740000  0.40040000  1
  H  H218  1  0.65000000  0.12660000  0.93540000  1
  H  H219  1  0.64170000  0.83260000  0.94300000  1
  H  H220  1  0.07570000  0.98630000  0.50790000  1
  H  H221  1  0.41530000  0.44300000  0.16740000  1
  H  H222  1  0.22000000  0.53020000  0.36080000  1
  H  H223  1  0.69800000  0.04340000  0.88240000  1
  H  H224  1  0.00920000  0.27290000  0.57050000  1
  H  H225  1  0.06120000  0.73140000  0.51480000  1
  H  H226  1  0.86060000  0.92770000  0.71210000  1
  H  H227  1  0.51750000  0.35890000  0.05490000  1
  H  H228  1  0.58360000  0.99210000  0.98630000  1
  H  H229  1  0.33460000  0.07140000  0.23460000  1
  H  H230  1  0.67990000  0.83910000  0.88910000  1
  H  H231  1  0.56990000  0.51370000  0.99210000  1
  H  H232  1  0.12790000  0.15620000  0.43400000  1
  H  H233  1  0.54220000  0.42350000  0.01130000  1
  H  H234  1  0.11560000  0.52920000  0.43380000  1
  H  H235  1  0.98760000  0.68130000  0.56170000  1
  H  H236  1  0.91340000  0.83780000  0.63240000  1
  H  H237  1  0.51960000  0.14300000  0.02420000  1
  H  H238  1  0.46570000  0.01130000  0.07650000  1
  H  H239  1  0.72320000  0.59350000  0.81450000  1
  H  H240  1  0.02300000  0.92350000  0.51130000  1
  H  H241  1  0.04960000  0.65760000  0.48340000  1
  H  H242  1  0.04090000  0.58210000  0.49110000  1
  H  H243  1  0.16260000  0.02420000  0.35700000  1
  H  H244  1  0.37640000  0.05490000  0.14110000  1
  H  H245  1  0.61420000  0.64190000  0.90250000  1
  H  H246  1  0.38980000  0.20450000  0.12650000  1
  H  H247  1  0.58870000  0.09960000  0.92740000  1
  H  H248  1  0.61850000  0.13620000  0.88980000  1
  H  H249  1  0.97290000  0.60970000  0.53510000  1
  H  H250  1  0.82500000  0.78980000  0.68080000  1
  H  H251  1  0.57270000  0.78790000  0.92770000  1
  H  H252  1  0.42730000  0.21210000  0.07230000  1
  H  H253  1  0.17500000  0.21020000  0.31920000  1
  H  H254  1  0.02710000  0.39030000  0.46490000  1
  H  H255  1  0.38150000  0.86380000  0.11020000  1
  H  H256  1  0.41130000  0.90040000  0.07260000  1
  H  H257  1  0.61020000  0.79550000  0.87350000  1
  H  H258  1  0.38580000  0.35810000  0.09750000  1
  H  H259  1  0.62360000  0.94510000  0.85890000  1
  H  H260  1  0.83740000  0.97580000  0.64300000  1
  H  H261  1  0.95910000  0.41790000  0.50890000  1
  H  H262  1  0.95040000  0.34240000  0.51660000  1
  H  H263  1  0.97700000  0.07650000  0.48870000  1
  H  H264  1  0.27680000  0.40650000  0.18550000  1
  H  H265  1  0.53430000  0.98870000  0.92350000  1
  H  H266  1  0.48040000  0.85700000  0.97580000  1
  H  H267  1  0.08660000  0.16220000  0.36760000  1
  H  H268  1  0.01240000  0.31870000  0.43830000  1
  H  H269  1  0.88440000  0.47080000  0.56620000  1
  H  H270  1  0.45780000  0.57650000  0.98870000  1
  H  H271  1  0.87210000  0.84380000  0.56600000  1
  H  H272  1  0.43010000  0.48630000  0.00790000  1
  H  H273  1  0.32010000  0.16090000  0.11090000  1
  H  H274  1  0.66540000  0.92860000  0.76540000  1
  H  H275  1  0.41640000  0.00790000  0.01370000  1
  H  H276  1  0.48250000  0.64110000  0.94510000  1
  H  H277  1  0.13940000  0.07230000  0.28790000  1
  H  H278  1  0.93880000  0.26860000  0.48520000  1
  H  H279  1  0.99080000  0.72710000  0.42950000  1
  H  H280  1  0.30200000  0.95660000  0.11760000  1
  H  H281  1  0.78000000  0.46980000  0.63920000  1
  H  H282  1  0.58470000  0.55700000  0.83260000  1
  H  H283  1  0.92430000  0.01370000  0.49210000  1
  H  H284  1  0.35830000  0.16740000  0.05700000  1
  H  H285  1  0.35000000  0.87340000  0.06460000  1
  H  H286  1  0.81170000  0.07260000  0.59960000  1
  H  H287  1  0.16150000  0.40760000  0.24720000  1
  H  H288  1  0.56900000  0.61090000  0.83910000  1
  H  H289  1  0.68470000  0.89510000  0.72270000  1
  H  H290  1  0.99620000  0.24300000  0.41100000  1
  H  H291  1  0.26000000  0.91850000  0.14670000  1
  H  H292  1  0.97690000  0.80580000  0.42860000  1
  H  H293  1  0.09450000  0.28490000  0.31090000  1
  H  H294  1  0.97760000  0.57350000  0.42710000  1
  H  H295  1  0.31630000  0.27670000  0.08270000  1
  H  H296  1  0.09430000  0.12650000  0.29550000  1
  H  H297  1  0.24390000  0.09750000  0.14190000  1
  H  H298  1  0.48390000  0.42740000  0.90040000  1
  H  H299  1  0.54580000  0.86760000  0.83780000  1
  H  H300  1  0.71900000  0.58240000  0.66460000  1
  H  H301  1  0.74530000  0.11020000  0.63620000  1
  H  H302  1  0.79120000  0.41120000  0.58900000  1
  H  H303  1  0.93130000  0.14110000  0.44510000  1
  H  H304  1  0.41960000  0.38240000  0.95660000  1
  H  H305  1  0.80170000  0.97860000  0.57440000  1
  H  H306  1  0.67130000  0.97350000  0.70150000  1
  H  H307  1  0.86850000  0.37260000  0.50340000  1
  H  H308  1  0.73350000  0.80410000  0.63510000  1
  H  H309  1  0.88560000  0.69760000  0.47600000  1
  H  H310  1  0.81580000  0.50590000  0.54510000  1
  H  H311  1  0.43080000  0.73460000  0.92860000  1
  H  H312  1  0.02570000  0.05700000  0.33260000  1
  H  H313  1  0.49170000  0.38980000  0.86380000  1
  H  H314  1  0.92960000  0.34830000  0.42570000  1
  H  H315  1  0.37610000  0.92560000  0.97860000  1
  H  H316  1  0.72340000  0.06460000  0.62660000  1
  H  H317  1  0.59280000  0.91100000  0.75700000  1
  H  H318  1  0.98440000  0.62100000  0.36240000  1
  H  H319  1  0.37280000  0.79850000  0.97350000  1
  H  H320  1  0.90600000  0.23460000  0.42860000  1
  H  H321  1  0.71110000  0.50640000  0.61920000  1
  H  H322  1  0.93590000  0.55560000  0.39400000  1
  H  H323  1  0.85520000  0.29850000  0.47350000  1
  H  H324  1  0.92020000  0.65130000  0.40550000  1
  H  H325  1  0.40670000  0.35330000  0.91850000  1
  H  H326  1  0.60100000  0.58270000  0.72330000  1
  H  H327  1  0.72410000  0.74310000  0.59770000  1
  H  H328  1  0.67480000  0.41850000  0.64670000  1
  H  H329  1  0.98100000  0.11090000  0.33910000  1
  H  H330  1  0.09300000  0.08270000  0.22330000  1
  H  H331  1  0.92020000  0.27730000  0.39510000  1
  H  H332  1  0.45620000  0.52420000  0.85700000  1
  H  H333  1  0.25330000  0.94710000  0.05830000  1
  H  H334  1  0.59460000  0.81090000  0.71510000  1
  H  H335  1  0.57600000  0.98520000  0.73140000  1
  H  H336  1  0.40740000  0.77730000  0.89510000  1
  H  H337  1  0.75860000  0.11760000  0.54340000  1
  H  H338  1  0.74130000  0.44710000  0.55830000  1
  H  H339  1  0.20860000  0.91120000  0.08900000  1
  H  H340  1  0.64470000  0.92570000  0.65170000  1
  H  H341  1  0.50580000  0.81920000  0.78980000  1
  H  H342  1  0.30740000  0.76860000  0.98520000  1
  H  H343  1  0.28250000  0.38080000  0.00640000  1
  H  H344  1  0.50040000  0.57230000  0.78790000  1
  H  H345  1  0.41460000  0.43540000  0.87340000  1
  H  H346  1  0.21130000  0.69420000  0.07140000  1
  H  H347  1  0.16330000  0.00640000  0.11920000  1
  H  H348  1  0.43810000  0.93400000  0.84380000  1
  H  H349  1  0.19860000  0.33540000  0.08240000  1
  H  H350  1  0.35470000  0.52140000  0.92560000  1
  H  H351  1  0.48370000  0.62650000  0.79550000  1
  H  H352  1  0.76220000  0.74760000  0.51680000  1
  H  H353  1  0.18330000  0.18550000  0.09350000  1
  H  H354  1  0.71200000  0.37340000  0.56460000  1
  H  H355  1  0.03280000  0.40230000  0.24310000  1
  H  H356  1  0.96240000  0.36490000  0.30410000  1
  H  H357  1  0.34980000  0.74300000  0.91100000  1
  H  H358  1  0.67850000  0.14670000  0.58150000  1
  H  H359  1  0.06300000  0.67280000  0.19620000  1
  H  H360  1  0.25550000  0.87260000  0.00340000  1
  H  H361  1  0.31160000  0.44170000  0.94710000  1
  H  H362  1  0.62810000  0.00340000  0.62740000  1
  H  H363  1  0.64450000  0.36380000  0.61020000  1
  H  H364  1  0.70040000  0.05830000  0.55290000  1
  H  H365  1  0.38360000  0.66220000  0.86760000  1
  H  H366  1  0.11100000  0.96980000  0.13920000  1
  H  H367  1  0.91230000  0.78300000  0.33280000  1
  H  H368  1  0.84140000  0.14190000  0.40250000  1
  H  H369  1  0.62380000  0.45660000  0.61760000  1
  H  H370  1  0.99020000  0.48320000  0.24760000  1
  H  H371  1  0.93200000  0.82720000  0.30380000  1
  H  H372  1  0.54930000  0.93830000  0.68130000  1
  H  H373  1  0.91800000  0.67500000  0.30580000  1
  H  H374  1  0.29640000  0.84830000  0.92570000  1
  H  H375  1  0.25020000  0.36080000  0.96980000  1
  H  H376  1  0.14740000  0.77290000  0.07050000  1
  H  H377  1  0.28190000  0.65620000  0.93400000  1
  H  H378  1  0.40550000  0.07140000  0.80580000  1
  H  H379  1  0.87100000  0.61090000  0.33990000  1
  H  H380  1  0.29760000  0.41100000  0.91120000  1
  H  H381  1  0.61980000  0.08900000  0.58880000  1
  H  H382  1  0.19060000  0.84240000  0.01660000  1
  H  H383  1  0.85610000  0.70670000  0.34850000  1
  H  H384  1  0.98300000  0.71300000  0.22100000  1
  H  H385  1  0.03400000  0.08240000  0.16460000  1
  H  H386  1  0.71970000  0.42560000  0.47860000  1
  H  H387  1  0.91700000  0.78700000  0.27900000  1
  H  H388  1  0.02810000  0.71700000  0.16720000  1
  H  H389  1  0.04980000  0.61770000  0.14250000  1
  H  H390  1  0.53300000  0.01660000  0.65760000  1
  H  H391  1  0.80770000  0.64250000  0.38230000  1
  H  H392  1  0.61570000  0.40040000  0.57260000  1
  H  H393  1  0.17830000  0.45490000  0.00590000  1
  H  H394  1  0.59130000  0.74720000  0.59240000  1
  H  H395  1  0.86880000  0.09350000  0.31450000  1
  H  H396  1  0.13320000  0.00590000  0.04510000  1
  H  H397  1  0.78910000  0.83990000  0.38910000  1
  H  H398  1  0.88520000  0.31920000  0.28980000  1
  H  H399  1  0.36860000  0.86490000  0.80410000  1
  H  H400  1  0.23060000  0.81870000  0.93830000  1
  H  H401  1  0.81000000  0.88230000  0.35750000  1
  H  H402  1  0.66970000  0.11920000  0.49360000  1
  H  H403  1  0.68680000  0.35700000  0.47580000  1
  H  H404  1  0.06910000  0.24720000  0.09240000  1
  H  H405  1  0.51670000  0.59750000  0.64190000  1
  H  H406  1  0.42030000  0.07050000  0.72710000  1
  H  H407  1  0.07860000  0.97080000  0.06620000  1
  H  H408  1  0.34630000  0.52650000  0.79850000  1
  H  H409  1  0.93720000  0.65150000  0.20670000  1
  H  H410  1  0.71170000  0.28790000  0.42770000  1
  H  H411  1  0.63910000  0.04510000  0.49410000  1
  H  H412  1  0.25890000  0.49660000  0.87260000  1
  H  H413  1  0.53770000  0.68550000  0.59350000  1
  H  H414  1  0.01810000  0.66010000  0.11090000  1
  H  H415  1  0.78410000  0.43400000  0.34380000  1
  H  H416  1  0.11410000  0.91790000  0.00890000  1
  H  H417  1  0.30970000  0.78490000  0.81090000  1
  H  H418  1  0.50800000  0.96490000  0.60970000  1
  H  H419  1  0.14480000  0.43380000  0.97080000  1
  H  H420  1  0.29560000  0.71020000  0.81920000  1
  H  H421  1  0.67010000  0.89400000  0.44440000  1
  H  H422  1  0.91680000  0.52400000  0.19760000  1
  H  H423  1  0.53200000  0.00890000  0.58210000  1
  H  H424  1  0.58080000  0.13920000  0.53020000  1
  H  H425  1  0.96780000  0.87900000  0.13760000  1
  H  H426  1  0.77620000  0.80580000  0.32500000  1
  H  H427  1  0.87940000  0.31090000  0.21510000  1
  H  H428  1  0.72080000  0.29550000  0.37350000  1
  H  H429  1  0.35940000  0.57140000  0.73460000  1
  H  H430  1  0.89880000  0.82500000  0.19420000  1
  H  H431  1  0.67570000  0.22330000  0.41730000  1
  H  H432  1  0.79540000  0.84850000  0.29330000  1
  H  H433  1  0.80470000  0.66720000  0.28300000  1
  H  H434  1  0.74880000  0.36760000  0.33780000  1
  H  H435  1  0.05920000  0.80240000  0.02400000  1
  H  H436  1  0.79600000  0.72100000  0.28700000  1
  H  H437  1  0.11770000  0.89030000  0.96490000  1
  H  H438  1  0.90700000  0.69420000  0.17500000  1
  H  H439  1  0.30250000  0.60490000  0.77730000  1
  H  H440  1  0.92850000  0.59450000  0.15130000  1
  H  H441  1  0.54940000  0.06620000  0.52920000  1
  H  H442  1  0.56200000  0.50790000  0.51370000  1
  H  H443  1  0.97700000  0.84870000  0.09450000  1
  H  H444  1  0.22210000  0.57430000  0.84830000  1
  H  H445  1  0.81630000  0.09240000  0.25280000  1
  H  H446  1  0.42760000  0.55490000  0.64110000  1
  H  H447  1  0.74080000  0.69620000  0.32720000  1
  H  H448  1  0.32180000  0.90230000  0.74310000  1
  H  H449  1  0.00850000  0.60600000  0.05560000  1
  H  H450  1  0.23580000  0.19620000  0.82720000  1
  H  H451  1  0.91130000  0.79330000  0.15150000  1
  H  H452  1  0.29260000  0.51480000  0.76860000  1
  H  H453  1  0.36160000  0.02400000  0.69760000  1
  H  H454  1  0.97820000  0.92650000  0.07290000  1
  H  H455  1  0.16750000  0.14250000  0.88230000  1
  H  H456  1  0.20720000  0.48340000  0.84240000  1
  H  H457  1  0.12300000  0.49110000  0.91790000  1
  H  H458  1  0.17270000  0.69590000  0.86490000  1
  H  H459  1  0.61640000  0.16460000  0.41760000  1
  H  H460  1  0.93510000  0.24310000  0.09770000  1
  H  H461  1  0.65320000  0.86240000  0.37900000  1
  H  H462  1  0.24510000  0.16720000  0.78300000  1
  H  H463  1  0.91740000  0.46490000  0.10970000  1
  H  H464  1  0.27900000  0.98320000  0.74760000  1
  H  H465  1  0.58270000  0.33260000  0.44300000  1
  H  H466  1  0.71730000  0.57140000  0.30580000  1
  H  H467  1  0.67430000  0.90550000  0.34870000  1
  H  H468  1  0.44650000  0.51130000  0.57650000  1
  H  H469  1  0.94890000  0.57290000  0.07350000  1
  H  H470  1  0.59530000  0.92710000  0.42650000  1
  H  H471  1  0.40810000  0.66090000  0.61090000  1
  H  H472  1  0.17820000  0.11090000  0.83990000  1
  H  H473  1  0.80400000  0.77900000  0.21300000  1
  H  H474  1  0.89460000  0.63760000  0.12100000  1
  H  H475  1  0.83110000  0.43830000  0.18130000  1
  H  H476  1  0.02660000  0.75240000  0.98320000  1
  H  H477  1  0.78210000  0.57050000  0.22710000  1
  H  H478  1  0.11450000  0.05560000  0.89400000  1
  H  H479  1  0.26080000  0.58900000  0.74300000  1
  C  C480  1  0.58458000  0.19564000  0.41540000  1
  C  C481  1  0.14025000  0.13748000  0.85942000  1
  C  C482  1  0.11972000  0.80874000  0.87916000  1
  C  C483  1  0.11462000  0.76293000  0.88343000  1
  C  C484  1  0.07498000  0.08148000  0.91416000  1
  C  C485  1  0.57446000  0.27590000  0.41318000  1
  C  C486  1  0.79159000  0.80777000  0.19565000  1
  C  C487  1  0.44119000  0.90838000  0.53684000  1
  C  C488  1  0.39016000  0.68312000  0.58736000  1
  C  C489  1  0.86848000  0.48000000  0.09824000  1
  C  C490  1  0.37986000  0.76963000  0.58445000  1
  C  C491  1  0.82162000  0.27349000  0.13847000  1
  C  C492  1  0.12735000  0.18013000  0.82917000  1
  C  C493  1  0.80574000  0.18258000  0.14854000  1
  C  C494  1  0.04801000  0.84524000  0.90414000  1
  C  C495  1  0.60675000  0.09586000  0.34524000  1
  C  C496  1  0.78100000  0.45032000  0.17028000  1
  C  C497  1  0.92103000  0.33650000  0.02730000  1
  C  C498  1  0.06044000  0.12525000  0.88507000  1
  C  C499  1  0.18880000  0.44767000  0.75253000  1
  C  C500  1  0.31431000  0.11493000  0.62525000  1
  C  C501  1  0.51526000  0.47198000  0.42330000  1
  C  C502  1  0.89096000  0.91317000  0.04697000  1
  C  C503  1  0.69449000  0.42055000  0.24187000  1
  C  C504  1  0.69478000  0.99923000  0.24021000  1
  C  C505  1  0.93499000  0.25979000  0.99923000  1
  C  C506  1  0.22703000  0.44699000  0.70575000  1
  C  C507  1  0.79045000  0.49170000  0.13920000  1
  C  C508  1  0.01086000  0.41416000  0.91852000  1
  C  C509  1  0.05449000  0.38507000  0.87475000  1
  C  C510  1  0.86121000  0.44837000  0.06475000  1
  C  C511  1  0.34354000  0.08584000  0.58148000  1
  C  C512  1  0.75753000  0.02730000  0.16350000  1
  C  C513  1  0.64678000  0.97450000  0.26994000  1
  C  C514  1  0.70388000  0.46094000  0.21250000  1
  C  C515  1  0.74923000  0.26489000  0.16545000  1
  C  C516  1  0.52670000  0.44551000  0.38529000  1
  C  C517  1  0.74097000  0.22024000  0.17042000  1
  C  C518  1  0.44735000  0.47331000  0.46059000  1
  C  C519  1  0.49515000  0.28384000  0.40926000  1
  C  C520  1  0.30786000  0.69012000  0.59556000  1
  C  C521  1  0.40663000  0.92621000  0.49673000  1
  C  C522  1  0.20499000  0.30777000  0.69565000  1
  C  C523  1  0.70611000  0.99927000  0.19271000  1
  C  C524  1  0.89882000  0.30729000  0.99927000  1
  C  C525  1  0.91672000  0.23006000  0.97450000  1
  C  C526  1  0.30413000  0.04697000  0.58683000  1
  C  C527  1  0.25652000  0.62163000  0.63253000  1
  C  C528  1  0.97803000  0.96316000  0.90838000  1
  C  C529  1  0.62245000  0.11657000  0.26293000  1
  C  C530  1  0.57154000  0.12084000  0.30874000  1
  C  C531  1  0.12645000  0.90949000  0.75321000  1
  C  C532  1  0.10878000  0.47450000  0.76994000  1
  C  C533  1  0.28406000  0.64622000  0.59386000  1
  C  C534  1  0.46406000  0.24679000  0.40949000  1
  C  C535  1  0.19252000  0.17083000  0.68013000  1
  C  C536  1  0.84848000  0.09824000  0.02000000  1
  C  C537  1  0.08861000  0.67042000  0.77976000  1
  C  C538  1  0.23675000  0.58164000  0.62866000  1
  C  C539  1  0.61100000  0.94767000  0.25253000  1
  C  C540  1  0.04348000  0.32917000  0.81987000  1
  C  C541  1  0.04572000  0.64854000  0.81742000  1
  C  C542  1  0.00033000  0.35942000  0.86252000  1
  C  C543  1  0.80958000  0.06475000  0.05163000  1
  C  C544  1  0.18523000  0.47294000  0.67500000  1
  C  C545  1  0.22227000  0.14058000  0.63748000  1
  C  C546  1  0.47410000  0.42002000  0.38478000  1
  C  C547  1  0.39201000  0.44815000  0.46183000  1
  C  C548  1  0.37308000  0.88918000  0.48026000  1
  C  C549  1  0.93793000  0.45303000  0.91317000  1
  C  C550  1  0.88641000  0.59162000  0.96316000  1
  C  C551  1  0.44672000  0.02000000  0.40176000  1
  C  C552  1  0.29332000  0.62771000  0.55205000  1
  C  C553  1  0.66683000  0.97294000  0.17500000  1
  C  C554  1  0.82957000  0.57379000  0.00327000  1
  C  C555  1  0.40596000  0.41946000  0.42382000  1
  C  C556  1  0.90336000  0.00327000  0.92621000  1
  C  C557  1  0.62023000  0.94699000  0.20575000  1
  C  C558  1  0.27353000  0.58677000  0.55057000  1
  C  C559  1  0.59511000  0.13847000  0.22651000  1
  C  C560  1  0.31911000  0.45390000  0.50206000  1
  C  C561  1  0.08532000  0.66545000  0.73511000  1
  C  C562  1  0.84183000  0.32500000  0.97294000  1
  C  C563  1  0.09559000  0.90926000  0.71616000  1
  C  C564  1  0.86353000  0.24747000  0.94767000  1
  C  C565  1  0.37433000  0.05163000  0.43525000  1
  C  C566  1  0.99888000  0.62084000  0.80874000  1
  C  C567  1  0.13665000  0.31987000  0.67083000  1
  C  C568  1  0.06578000  0.49923000  0.74021000  1
  C  C569  1  0.48832000  0.14854000  0.31742000  1
  C  C570  1  0.00002000  0.91540000  0.80436000  1
  C  C571  1  0.95215000  0.59586000  0.84524000  1
  C  C572  1  0.98724000  0.30435000  0.80777000  1
  C  C573  1  0.10191000  0.49927000  0.69271000  1
  C  C574  1  0.09936000  0.19565000  0.69223000  1
  C  C575  1  0.78215000  0.13920000  0.00830000  1
  C  C576  1  0.87966000  0.74679000  0.90949000  1
  C  C577  1  0.42135000  0.00830000  0.36080000  1
  C  C578  1  0.73132000  0.17028000  0.04968000  1
  C  C579  1  0.13715000  0.36252000  0.64058000  1
  C  C580  1  0.33440000  0.90960000  0.43920000  1
  C  C581  1  0.82598000  0.29425000  0.94699000  1
  C  C582  1  0.03991000  0.63847000  0.72651000  1
  C  C583  1  0.68161000  0.37134000  0.08164000  1
  C  C584  1  0.74252000  0.61082000  0.01974000  1
  C  C585  1  0.99805000  0.61657000  0.76293000  1
  C  C586  1  0.28483000  0.16350000  0.47270000  1
  C  C587  1  0.34030000  0.61250000  0.41210000  1
  C  C588  1  0.17022000  0.92382000  0.58054000  1
  C  C589  1  0.51412000  0.16545000  0.23511000  1
  C  C590  1  0.68320000  0.59040000  0.06080000  1
  C  C591  1  0.62185000  0.36747000  0.12163000  1
  C  C592  1  0.85334000  0.01974000  0.88918000  1
  C  C593  1  0.46121000  0.17042000  0.27976000  1
  C  C594  1  0.01236000  0.91318000  0.72410000  1
  C  C595  1  0.96431000  0.91555000  0.76963000  1
  C  C596  1  0.40160000  0.04968000  0.32972000  1
  C  C597  1  0.72493000  0.95390000  0.00206000  1
  C  C598  1  0.63970000  0.44943000  0.08677000  1
  C  C599  1  0.17883000  0.00206000  0.54610000  1
  C  C600  1  0.14112000  0.88478000  0.57998000  1
  C  C601  1  0.81175000  0.78384000  0.90926000  1
  C  C602  1  0.80438000  0.69564000  0.91540000  1
  C  C603  1  0.56972000  0.40614000  0.14622000  1
  C  C604  1  0.28670000  0.88500000  0.42880000  1
  C  C605  1  0.05167000  0.52730000  0.66350000  1
  C  C606  1  0.32830000  0.57120000  0.38500000  1
  C  C607  1  0.57897000  0.44795000  0.12771000  1
  C  C608  1  0.20538000  0.19271000  0.50073000  1
  C  C609  1  0.66482000  0.21250000  0.03906000  1
  C  C610  1  0.14616000  0.96183000  0.55185000  1
  C  C611  1  0.14890000  0.41317000  0.54697000  1
  C  C612  1  0.19401000  0.24021000  0.50077000  1
  C  C613  1  0.61504000  0.24187000  0.07945000  1
  C  C614  1  0.50202000  0.40444000  0.19012000  1
  C  C615  1  0.07076000  0.37475000  0.61493000  1
  C  C616  1  0.77360000  0.06080000  0.90960000  1
  C  C617  1  0.55295000  0.08164000  0.12866000  1
  C  C618  1  0.72699000  0.49794000  0.95390000  1
  C  C619  1  0.75076000  0.91946000  0.92382000  1
  C  C620  1  0.60050000  0.61500000  0.07120000  1
  C  C621  1  0.13977000  0.17500000  0.52706000  1
  C  C622  1  0.25600000  0.56080000  0.40960000  1
  C  C623  1  0.37732000  0.03906000  0.28750000  1
  C  C624  1  0.97752000  0.91264000  0.68312000  1
  C  C625  1  0.69801000  0.94815000  0.96183000  1
  C  C626  1  0.54720000  0.58790000  0.11250000  1
  C  C627  1  0.07062000  0.41852000  0.58584000  1
  C  C628  1  0.73646000  0.77590000  0.91318000  1
  C  C629  1  0.73394000  0.73037000  0.91555000  1
  C  C630  1  0.12128000  0.26994000  0.52550000  1
  C  C631  1  0.06364000  0.74187000  0.57945000  1
  C  C632  1  0.08801000  0.88529000  0.55449000  1
  C  C633  1  0.58913000  0.08677000  0.05057000  1
  C  C634  1  0.24760000  0.91210000  0.38750000  1
  C  C635  1  0.23774000  0.51974000  0.38918000  1
  C  C636  1  0.07404000  0.56475000  0.55163000  1
  C  C637  1  0.08362000  0.71250000  0.53906000  1
  C  C638  1  0.23902000  0.26293000  0.38343000  1
  C  C639  1  0.48932000  0.12163000  0.13253000  1
  C  C640  1  0.06722000  0.20575000  0.55301000  1
  C  C641  1  0.35051000  0.41555000  0.26963000  1
  C  C642  1  0.09206000  0.96059000  0.52669000  1
  C  C643  1  0.35691000  0.07945000  0.25813000  1
  C  C644  1  0.05867000  0.25253000  0.55233000  1
  C  C645  1  0.42672000  0.41264000  0.18312000  1
  C  C646  1  0.65984000  0.53817000  0.94815000  1
  C  C647  1  0.20261000  0.34524000  0.40414000  1
  C  C648  1  0.72110000  0.92002000  0.88478000  1
  C  C649  1  0.71550000  0.07120000  0.88500000  1
  C  C650  1  0.04872000  0.67028000  0.54968000  1
  C  C651  1  0.23358000  0.22651000  0.36153000  1
  C  C652  1  0.67458000  0.57618000  0.91946000  1
  C  C653  1  0.90342000  0.90444000  0.69012000  1
  C  C654  1  0.16716000  0.50327000  0.42621000  1
  C  C655  1  0.06144000  0.92330000  0.52802000  1
  C  C656  1  0.17590000  0.05057000  0.41323000  1
  C  C657  1  0.28022000  0.41540000  0.30436000  1
  C  C658  1  0.61875000  0.97331000  0.96059000  1
  C  C659  1  0.52692000  0.12771000  0.05205000  1
  C  C660  1  0.07035000  0.63920000  0.50830000  1
  C  C661  1  0.35036000  0.41318000  0.22410000  1
  C  C662  1  0.66064000  0.81688000  0.91264000  1
  C  C663  1  0.19238000  0.30874000  0.37916000  1
  C  C664  1  0.47586000  0.14622000  0.09386000  1
  C  C665  1  0.15043000  0.46316000  0.40838000  1
  C  C666  1  0.03328000  0.59824000  0.52000000  1
  C  C667  1  0.13459000  0.12866000  0.41836000  1
  C  C668  1  0.57934000  0.53941000  0.97331000  1
  C  C669  1  0.63510000  0.11250000  0.91210000  1
  C  C670  1  0.86837000  0.72024000  0.67042000  1
  C  C671  1  0.78915000  0.59051000  0.74679000  1
  C  C672  1  0.64250000  0.94551000  0.88529000  1
  C  C673  1  0.15463000  0.05205000  0.37229000  1
  C  C674  1  0.47221000  0.38529000  0.05449000  1
  C  C675  1  0.60588000  0.61522000  0.92002000  1
  C  C676  1  0.87792000  0.90614000  0.64622000  1
  C  C677  1  0.48724000  0.42330000  0.02802000  1
  C  C678  1  0.17957000  0.23511000  0.33455000  1
  C  C679  1  0.58946000  0.97198000  0.92330000  1
  C  C680  1  0.86314000  0.68258000  0.64854000  1
  C  C681  1  0.88905000  0.86747000  0.62163000  1
  C  C682  1  0.72101000  0.59074000  0.78384000  1
  C  C683  1  0.40646000  0.19012000  0.09556000  1
  C  C684  1  0.59354000  0.80988000  0.90444000  1
  C  C685  1  0.27899000  0.40926000  0.21616000  1
  C  C686  1  0.11095000  0.13253000  0.37837000  1
  C  C687  1  0.13686000  0.31742000  0.35146000  1
  C  C688  1  0.41054000  0.02802000  0.07670000  1
  C  C689  1  0.82043000  0.76489000  0.66545000  1
  C  C690  1  0.51276000  0.57670000  0.97198000  1
  C  C691  1  0.12208000  0.09386000  0.35378000  1
  C  C692  1  0.39412000  0.38478000  0.07998000  1
  C  C693  1  0.52779000  0.61471000  0.94551000  1
  C  C694  1  0.84537000  0.94795000  0.62771000  1
  C  C695  1  0.35750000  0.05449000  0.11471000  1
  C  C696  1  0.21085000  0.40949000  0.25321000  1
  C  C697  1  0.13163000  0.27976000  0.32958000  1
  C  C698  1  0.36490000  0.88750000  0.08790000  1
  C  C699  1  0.42066000  0.46059000  0.02669000  1
  C  C700  1  0.86541000  0.87134000  0.58164000  1
  C  C701  1  0.96672000  0.40176000  0.48000000  1
  C  C702  1  0.84957000  0.53684000  0.59162000  1
  C  C703  1  0.52414000  0.85378000  0.90614000  1
  C  C704  1  0.80762000  0.69126000  0.62084000  1
  C  C705  1  0.33936000  0.18312000  0.08736000  1
  C  C706  1  0.64964000  0.58682000  0.77590000  1
  C  C707  1  0.92965000  0.36080000  0.49170000  1
  C  C708  1  0.47308000  0.87229000  0.94795000  1
  C  C709  1  0.38125000  0.02669000  0.03941000  1
  C  C710  1  0.71978000  0.58460000  0.69564000  1
  C  C711  1  0.82410000  0.94943000  0.58677000  1
  C  C712  1  0.93856000  0.07670000  0.47198000  1
  C  C713  1  0.83284000  0.49673000  0.57379000  1
  C  C714  1  0.09658000  0.09556000  0.30988000  1
  C  C715  1  0.32542000  0.42382000  0.08054000  1
  C  C716  1  0.76642000  0.77349000  0.63847000  1
  C  C717  1  0.95128000  0.32972000  0.45032000  1
  C  C718  1  0.28450000  0.92880000  0.11500000  1
  C  C719  1  0.27890000  0.07998000  0.11522000  1
  C  C720  1  0.79739000  0.65476000  0.59586000  1
  C  C721  1  0.34016000  0.46183000  0.05185000  1
  C  C722  1  0.57328000  0.58736000  0.81688000  1
  C  C723  1  0.94133000  0.74747000  0.44767000  1
  C  C724  1  0.64309000  0.92055000  0.74187000  1
  C  C725  1  0.90794000  0.03941000  0.47331000  1
  C  C726  1  0.64949000  0.58445000  0.73037000  1
  C  C727  1  0.93278000  0.79425000  0.44699000  1
  C  C728  1  0.51068000  0.87837000  0.86747000  1
  C  C729  1  0.76098000  0.73707000  0.61657000  1
  C  C730  1  0.91638000  0.28750000  0.46094000  1
  C  C731  1  0.92596000  0.43525000  0.44837000  1
  C  C732  1  0.76226000  0.48026000  0.61082000  1
  C  C733  1  0.75240000  0.08790000  0.61250000  1
  C  C734  1  0.41087000  0.91323000  0.94943000  1
  C  C735  1  0.91199000  0.11471000  0.44551000  1
  C  C736  1  0.93636000  0.25813000  0.42055000  1
  C  C737  1  0.87872000  0.73006000  0.47450000  1
  C  C738  1  0.26606000  0.26963000  0.08445000  1
  C  C739  1  0.26354000  0.22410000  0.08682000  1
  C  C740  1  0.92938000  0.58148000  0.41416000  1
  C  C741  1  0.45280000  0.41210000  0.88750000  1
  C  C742  1  0.30199000  0.05185000  0.03817000  1
  C  C743  1  0.02248000  0.08736000  0.31688000  1
  C  C744  1  0.62268000  0.96094000  0.71250000  1
  C  C745  1  0.74400000  0.43920000  0.59040000  1
  C  C746  1  0.86023000  0.82500000  0.47294000  1
  C  C747  1  0.39950000  0.38500000  0.92880000  1
  C  C748  1  0.24924000  0.08054000  0.07618000  1
  C  C749  1  0.27301000  0.50206000  0.04610000  1
  C  C750  1  0.44705000  0.91836000  0.87134000  1
  C  C751  1  0.22640000  0.93920000  0.09040000  1
  C  C752  1  0.92924000  0.62525000  0.38507000  1
  C  C753  1  0.49798000  0.59556000  0.80988000  1
  C  C754  1  0.38496000  0.75813000  0.92055000  1
  C  C755  1  0.80599000  0.75979000  0.49923000  1
  C  C756  1  0.85110000  0.58683000  0.45303000  1
  C  C757  1  0.85384000  0.03817000  0.44815000  1
  C  C758  1  0.33518000  0.78750000  0.96094000  1
  C  C759  1  0.79462000  0.80729000  0.49927000  1
  C  C760  1  0.42103000  0.55205000  0.87229000  1
  C  C761  1  0.67170000  0.42880000  0.61500000  1
  C  C762  1  0.94833000  0.47270000  0.33650000  1
  C  C763  1  0.71330000  0.11500000  0.57120000  1
  C  C764  1  0.43028000  0.59386000  0.85378000  1
  C  C765  1  0.19562000  0.30436000  0.08460000  1
  C  C766  1  0.18825000  0.21616000  0.09074000  1
  C  C767  1  0.85888000  0.11522000  0.42002000  1
  C  C768  1  0.82117000  0.99794000  0.45390000  1
  C  C769  1  0.36030000  0.55057000  0.91323000  1
  C  C770  1  0.27507000  0.04610000  0.99794000  1
  C  C771  1  0.59840000  0.95032000  0.67028000  1
  C  C772  1  0.03569000  0.08445000  0.23037000  1
  C  C773  1  0.98764000  0.08682000  0.27590000  1
  C  C774  1  0.53879000  0.82958000  0.72024000  1
  C  C775  1  0.14666000  0.98026000  0.11082000  1
  C  C776  1  0.37815000  0.63253000  0.87837000  1
  C  C777  1  0.31680000  0.40960000  0.93920000  1
  C  C778  1  0.48588000  0.83455000  0.76489000  1
  C  C779  1  0.82978000  0.07618000  0.41946000  1
  C  C780  1  0.65970000  0.38750000  0.58790000  1
  C  C781  1  0.71517000  0.83650000  0.52730000  1
  C  C782  1  0.00195000  0.38343000  0.23707000  1
  C  C783  1  0.25748000  0.38918000  0.98026000  1
  C  C784  1  0.31839000  0.62866000  0.91836000  1
  C  C785  1  0.96009000  0.36153000  0.27349000  1
  C  C786  1  0.17402000  0.70575000  0.05301000  1
  C  C787  1  0.66560000  0.09040000  0.56080000  1
  C  C788  1  0.86285000  0.63748000  0.35942000  1
  C  C789  1  0.26868000  0.82972000  0.95032000  1
  C  C790  1  0.57865000  0.99170000  0.63920000  1
  C  C791  1  0.12034000  0.25321000  0.09051000  1
  C  C792  1  0.21785000  0.86080000  0.99170000  1
  C  C793  1  0.90064000  0.80435000  0.30777000  1
  C  C794  1  0.89809000  0.50073000  0.30729000  1
  C  C795  1  0.01276000  0.69565000  0.19223000  1
  C  C796  1  0.04785000  0.40414000  0.15476000  1
  C  C797  1  0.99998000  0.08460000  0.19564000  1
  C  C798  1  0.51168000  0.85146000  0.68258000  1
  C  C799  1  0.93422000  0.50077000  0.25979000  1
  C  C800  1  0.86335000  0.68013000  0.32917000  1
  C  C801  1  0.00112000  0.37916000  0.19126000  1
  C  C802  1  0.62567000  0.94837000  0.56475000  1
  C  C803  1  0.13647000  0.75253000  0.05233000  1
  C  C804  1  0.90441000  0.09074000  0.28384000  1
  C  C805  1  0.15817000  0.67500000  0.02706000  1
  C  C806  1  0.91468000  0.33455000  0.26489000  1
  C  C807  1  0.68089000  0.54610000  0.49794000  1
  C  C808  1  0.40489000  0.86153000  0.77349000  1
  C  C809  1  0.72647000  0.41323000  0.44943000  1
  C  C810  1  0.37977000  0.05301000  0.79425000  1
  C  C811  1  0.09664000  0.99673000  0.07379000  1
  C  C812  1  0.59404000  0.58054000  0.57618000  1
  C  C813  1  0.17043000  0.42621000  0.99673000  1
  C  C814  1  0.33317000  0.02706000  0.82500000  1
  C  C815  1  0.70668000  0.37229000  0.44795000  1
  C  C816  1  0.55328000  0.98000000  0.59824000  1
  C  C817  1  0.11359000  0.40838000  0.03684000  1
  C  C818  1  0.06207000  0.54697000  0.08683000  1
  C  C819  1  0.62692000  0.11082000  0.51974000  1
  C  C820  1  0.60799000  0.55185000  0.53817000  1
  C  C821  1  0.52590000  0.57998000  0.61522000  1
  C  C822  1  0.77773000  0.85942000  0.36252000  1
  C  C823  1  0.81477000  0.52706000  0.32500000  1
  C  C824  1  0.19042000  0.93525000  0.94837000  1
  C  C825  1  0.99967000  0.64058000  0.13748000  1
  C  C826  1  0.95428000  0.35146000  0.18258000  1
  C  C827  1  0.95652000  0.67083000  0.18013000  1
  C  C828  1  0.38900000  0.05233000  0.74747000  1
  C  C829  1  0.76325000  0.41836000  0.37134000  1
  C  C830  1  0.91139000  0.32958000  0.22024000  1
  C  C831  1  0.15152000  0.90176000  0.98000000  1
  C  C832  1  0.80748000  0.82917000  0.31987000  1
  C  C833  1  0.53594000  0.75321000  0.59051000  1
  C  C834  1  0.71594000  0.35378000  0.40614000  1
  C  C835  1  0.89122000  0.52550000  0.23006000  1
  C  C836  1  0.87355000  0.09051000  0.24679000  1
  C  C837  1  0.42846000  0.87916000  0.69126000  1
  C  C838  1  0.37755000  0.88343000  0.73707000  1
  C  C839  1  0.02197000  0.03684000  0.09162000  1
  C  C840  1  0.74348000  0.37837000  0.36747000  1
  C  C841  1  0.69587000  0.95303000  0.41317000  1
  C  C842  1  0.08328000  0.76994000  0.02550000  1
  C  C843  1  0.10118000  0.69271000  0.00073000  1
  C  C844  1  0.29389000  0.00073000  0.80729000  1
  C  C845  1  0.79501000  0.69223000  0.30435000  1
  C  C846  1  0.59337000  0.07379000  0.50327000  1
  C  C847  1  0.69214000  0.30988000  0.40444000  1
  C  C848  1  0.50485000  0.71616000  0.59074000  1
  C  C849  1  0.55265000  0.52669000  0.53941000  1
  C  C850  1  0.25903000  0.77976000  0.82958000  1
  C  C851  1  0.47330000  0.55449000  0.61471000  1
  C  C852  1  0.25077000  0.73511000  0.83455000  1
  C  C853  1  0.29612000  0.53906000  0.78750000  1
  C  C854  1  0.35322000  0.02550000  0.73006000  1
  C  C855  1  0.24247000  0.97270000  0.83650000  1
  C  C856  1  0.65646000  0.91416000  0.41852000  1
  C  C857  1  0.13879000  0.55163000  0.93525000  1
  C  C858  1  0.94551000  0.61493000  0.12525000  1
  C  C859  1  0.98914000  0.58584000  0.08148000  1
  C  C860  1  0.20955000  0.50830000  0.86080000  1
  C  C861  1  0.77297000  0.55301000  0.29425000  1
  C  C862  1  0.06501000  0.74021000  0.00077000  1
  C  C863  1  0.30522000  0.00077000  0.75979000  1
  C  C864  1  0.30551000  0.57945000  0.75813000  1
  C  C865  1  0.10904000  0.08683000  0.95303000  1
  C  C866  1  0.48474000  0.52802000  0.57670000  1
  C  C867  1  0.68569000  0.88507000  0.37475000  1
  C  C868  1  0.81120000  0.55233000  0.24747000  1
  C  C869  1  0.93956000  0.87475000  0.11493000  1
  C  C870  1  0.07897000  0.66350000  0.97270000  1
  C  C871  1  0.21900000  0.54968000  0.82972000  1
  C  C872  1  0.39325000  0.90414000  0.65476000  1
  C  C873  1  0.95199000  0.15476000  0.09586000  1
  C  C874  1  0.19426000  0.81742000  0.85146000  1
  C  C875  1  0.87265000  0.81987000  0.17083000  1
  C  C876  1  0.17838000  0.72651000  0.86153000  1
  C  C877  1  0.62014000  0.23037000  0.41555000  1
  C  C878  1  0.13152000  0.52000000  0.90176000  1
  C  C879  1  0.60984000  0.31688000  0.41264000  1
  C  C880  1  0.55881000  0.09162000  0.46316000  1
  C  C881  1  0.20841000  0.19223000  0.80435000  1
  C  C882  1  0.42554000  0.72410000  0.58682000  1
  C  C883  1  0.92502000  0.91852000  0.08584000  1
  C  C884  1  0.88538000  0.23707000  0.11657000  1
  C  C885  1  0.88028000  0.19126000  0.12084000  1
  C  C886  1  0.85975000  0.86252000  0.14058000  1
  C  C887  1  0.41542000  0.80436000  0.58460000  1
  N  N888  1  0.39698000  0.92241000  0.57871000  1
  N  N889  1  0.90336000  0.40532000  0.06196000  1
  N  N890  1  0.56089000  0.10125000  0.38875000  1
  N  N891  1  0.05036000  0.88875000  0.89875000  1
  N  N892  1  0.50761000  0.20320000  0.41220000  1
  N  N893  1  0.88258000  0.38112000  0.03082000  1
  N  N894  1  0.80868000  0.06196000  0.09468000  1
  N  N895  1  0.97569000  0.92129000  0.92241000  1
  N  N896  1  0.76370000  0.03082000  0.11888000  1
  N  N897  1  0.08019000  0.91220000  0.79680000  1
  N  N898  1  0.81927000  0.94035000  0.04485000  1
  N  N899  1  0.94911000  0.60125000  0.88875000  1
  N  N900  1  0.24516000  0.56400000  0.58898000  1
  N  N901  1  0.89810000  0.57759000  0.92129000  1
  N  N902  1  0.25962000  0.04485000  0.55965000  1
  N  N903  1  0.37064000  0.09468000  0.43804000  1
  N  N904  1  0.80014000  0.93032000  0.00476000  1
  N  N905  1  0.86412000  0.45515000  0.94035000  1
  N  N906  1  0.23046000  0.00476000  0.56968000  1
  N  N907  1  0.87699000  0.70320000  0.91220000  1
  N  N908  1  0.26478000  0.43032000  0.50476000  1
  N  N909  1  0.29452000  0.11888000  0.46918000  1
  N  N910  1  0.69084000  0.41102000  0.06400000  1
  N  N911  1  0.19553000  0.44035000  0.54485000  1
  N  N912  1  0.80490000  0.49524000  0.93032000  1
  N  N913  1  0.08660000  0.53082000  0.61888000  1
  N  N914  1  0.60186000  0.06400000  0.08898000  1
  N  N915  1  0.03468000  0.56196000  0.59468000  1
  N  N916  1  0.18061000  0.42129000  0.42241000  1
  N  N917  1  0.16586000  0.08898000  0.43600000  1
  N  N918  1  0.16214000  0.38875000  0.39875000  1
  N  N919  1  0.21081000  0.41220000  0.29680000  1
  N  N920  1  0.78919000  0.58780000  0.70320000  1
  N  N921  1  0.83786000  0.61125000  0.60125000  1
  N  N922  1  0.83414000  0.91102000  0.56400000  1
  N  N923  1  0.81939000  0.57871000  0.57759000  1
  N  N924  1  0.96532000  0.43804000  0.40532000  1
  N  N925  1  0.39814000  0.93600000  0.91102000  1
  N  N926  1  0.91340000  0.46918000  0.38112000  1
  N  N927  1  0.19510000  0.50476000  0.06968000  1
  N  N928  1  0.80447000  0.55965000  0.45515000  1
  N  N929  1  0.30916000  0.58898000  0.93600000  1
  N  N930  1  0.70548000  0.88112000  0.53082000  1
  N  N931  1  0.73522000  0.56968000  0.49524000  1
  N  N932  1  0.12301000  0.29680000  0.08780000  1
  N  N933  1  0.76954000  0.99524000  0.43032000  1
  N  N934  1  0.13588000  0.54485000  0.05965000  1
  N  N935  1  0.19986000  0.06968000  0.99524000  1
  N  N936  1  0.62936000  0.90532000  0.56196000  1
  N  N937  1  0.74038000  0.95515000  0.44035000  1
  N  N938  1  0.10190000  0.42241000  0.07871000  1
  N  N939  1  0.75484000  0.43600000  0.41102000  1
  N  N940  1  0.05089000  0.39875000  0.11125000  1
  N  N941  1  0.18073000  0.05965000  0.95515000  1
  N  N942  1  0.91981000  0.08780000  0.20320000  1
  N  N943  1  0.23630000  0.96918000  0.88112000  1
  N  N944  1  0.02431000  0.07871000  0.07759000  1
  N  N945  1  0.19132000  0.93804000  0.90532000  1
  N  N946  1  0.11742000  0.61888000  0.96918000  1
  N  N947  1  0.49239000  0.79680000  0.58780000  1
  N  N948  1  0.94964000  0.11125000  0.10125000  1
  N  N949  1  0.43911000  0.89875000  0.61125000  1
  N  N950  1  0.09664000  0.59468000  0.93804000  1
  N  N951  1  0.60302000  0.07759000  0.42129000  1
  O  O952  1  0.31736000  0.93005000  0.66579000  1
  O  O953  1  0.79343000  0.04885000  0.18229000  1
  O  O954  1  0.02428000  0.68229000  0.95115000  1
  O  O955  1  0.48760000  0.12266000  0.47158000  1
  O  O956  1  0.93546000  0.88099000  0.01597000  1
  O  O957  1  0.79254000  0.14108000  0.15586000  1
  O  O958  1  0.31645000  0.01597000  0.61901000  1
  O  O959  1  0.04082000  0.97158000  0.87734000  1
  O  O960  1  0.98315000  0.83421000  0.93005000  1
  O  O961  1  0.05160000  0.65586000  0.85892000  1
  O  O962  1  0.91816000  0.62266000  0.97158000  1
  O  O963  1  0.22731000  0.47066000  0.63040000  1
  O  O964  1  0.80863000  0.46555000  0.04077000  1
  O  O965  1  0.30895000  0.48231000  0.53375000  1
  O  O966  1  0.95143000  0.48403000  0.88099000  1
  O  O967  1  0.21954000  0.92176000  0.60760000  1
  O  O968  1  0.77418000  0.04077000  0.03445000  1
  O  O969  1  0.67163000  0.97066000  0.13040000  1
  O  O970  1  0.34228000  0.18229000  0.45115000  1
  O  O971  1  0.43362000  0.15586000  0.35892000  1
  O  O972  1  0.35870000  0.39240000  0.42176000  1
  O  O973  1  0.31495000  0.03445000  0.45923000  1
  O  O974  1  0.80203000  0.36960000  0.97066000  1
  O  O975  1  0.82714000  0.89240000  0.92176000  1
  O  O976  1  0.91320000  0.56995000  0.83421000  1
  O  O977  1  0.67499000  0.98231000  0.03375000  1
  O  O978  1  0.70874000  0.46625000  0.98231000  1
  O  O979  1  0.15060000  0.54077000  0.53445000  1
  O  O980  1  0.16758000  0.38099000  0.51597000  1
  O  O981  1  0.25259000  0.33421000  0.43005000  1
  O  O982  1  0.15730000  0.03375000  0.51769000  1
  O  O983  1  0.14229000  0.13040000  0.52934000  1
  O  O984  1  0.97543000  0.54885000  0.68229000  1
  O  O985  1  0.74890000  0.57824000  0.89240000  1
  O  O986  1  0.91052000  0.64108000  0.65586000  1
  O  O987  1  0.88974000  0.52842000  0.62266000  1
  O  O988  1  0.11026000  0.47158000  0.37734000  1
  O  O989  1  0.08948000  0.35892000  0.34414000  1
  O  O990  1  0.25110000  0.42176000  0.10760000  1
  O  O991  1  0.02457000  0.45115000  0.31771000  1
  O  O992  1  0.85771000  0.86960000  0.47066000  1
  O  O993  1  0.84270000  0.96625000  0.48231000  1
  O  O994  1  0.74741000  0.66579000  0.56995000  1
  O  O995  1  0.83242000  0.61901000  0.48403000  1
  O  O996  1  0.84940000  0.45923000  0.46555000  1
  O  O997  1  0.29126000  0.53375000  0.01769000  1
  O  O998  1  0.32501000  0.01769000  0.96625000  1
  O  O999  1  0.08680000  0.43005000  0.16579000  1
  O  O1000  1  0.17286000  0.10760000  0.07824000  1
  O  O1001  1  0.19797000  0.63040000  0.02934000  1
  O  O1002  1  0.68505000  0.96555000  0.54077000  1
  O  O1003  1  0.64130000  0.60760000  0.57824000  1
  O  O1004  1  0.56638000  0.84414000  0.64108000  1
  O  O1005  1  0.65772000  0.81771000  0.54885000  1
  O  O1006  1  0.32837000  0.02934000  0.86960000  1
  O  O1007  1  0.22582000  0.95923000  0.96555000  1
  O  O1008  1  0.78046000  0.07824000  0.39240000  1
  O  O1009  1  0.04857000  0.51597000  0.11901000  1
  O  O1010  1  0.69105000  0.51769000  0.46625000  1
  O  O1011  1  0.19137000  0.53445000  0.95923000  1
  O  O1012  1  0.77269000  0.52934000  0.36960000  1
  O  O1013  1  0.08184000  0.37734000  0.02842000  1
  O  O1014  1  0.94840000  0.34414000  0.14108000  1
  O  O1015  1  0.01685000  0.16579000  0.06995000  1
  O  O1016  1  0.95918000  0.02842000  0.12266000  1
  O  O1017  1  0.68355000  0.98403000  0.38099000  1
  O  O1018  1  0.20746000  0.85892000  0.84414000  1
  O  O1019  1  0.06454000  0.11901000  0.98403000  1
  O  O1020  1  0.51240000  0.87734000  0.52842000  1
  O  O1021  1  0.97572000  0.31771000  0.04885000  1
  O  O1022  1  0.20657000  0.95115000  0.81771000  1
  O  O1023  1  0.68264000  0.06995000  0.33421000  1
