# generated using pymatgen
data_CuH6C8(N2O)2
_symmetry_space_group_name_H-M   'P 1'
_cell_length_a   15.76000000
_cell_length_b   15.76000000
_cell_length_c   15.76000000
_cell_angle_alpha   90.00000000
_cell_angle_beta   90.00000000
_cell_angle_gamma   90.00000000
_symmetry_Int_Tables_number   1
_chemical_formula_structural   CuH6C8(N2O)2
_chemical_formula_sum   'Cu12 H72 C96 N48 O24'
_cell_volume   3914.43097600
_cell_formula_units_Z   12
loop_
 _symmetry_equiv_pos_site_id
 _symmetry_equiv_pos_as_xyz
  1  'x, y, z'
loop_
 _atom_site_type_symbol
 _atom_site_label
 _atom_site_symmetry_multiplicity
 _atom_site_fract_x
 _atom_site_fract_y
 _atom_site_fract_z
 _atom_site_occupancy
  Cu  Cu0  1  0.00000000  0.25000000  0.75000000  1
  Cu  Cu1  1  0.00000000  0.75000000  0.25000000  1
  Cu  Cu2  1  0.25000000  0.00000000  0.75000000  1
  Cu  Cu3  1  0.25000000  0.50000000  0.75000000  1
  Cu  Cu4  1  0.25000000  0.75000000  0.00000000  1
  Cu  Cu5  1  0.25000000  0.75000000  0.50000000  1
  Cu  Cu6  1  0.50000000  0.25000000  0.75000000  1
  Cu  Cu7  1  0.50000000  0.75000000  0.25000000  1
  Cu  Cu8  1  0.75000000  0.00000000  0.25000000  1
  Cu  Cu9  1  0.75000000  0.25000000  0.00000000  1
  Cu  Cu10  1  0.75000000  0.25000000  0.50000000  1
  Cu  Cu11  1  0.75000000  0.50000000  0.25000000  1
  H  H12  1  0.00300000  0.68600000  0.81400000  1
  H  H13  1  0.00300000  0.81400000  0.68600000  1
  H  H14  1  0.07390000  0.57970000  0.74230000  1
  H  H15  1  0.07390000  0.74230000  0.57970000  1
  H  H16  1  0.07390000  0.75770000  0.92030000  1
  H  H17  1  0.07390000  0.92030000  0.75770000  1
  H  H18  1  0.07970000  0.24230000  0.92610000  1
  H  H19  1  0.07970000  0.25770000  0.57390000  1
  H  H20  1  0.07970000  0.57390000  0.25770000  1
  H  H21  1  0.07970000  0.92610000  0.24230000  1
  H  H22  1  0.18600000  0.18600000  0.50300000  1
  H  H23  1  0.18600000  0.31400000  0.99700000  1
  H  H24  1  0.18600000  0.50300000  0.18600000  1
  H  H25  1  0.18600000  0.99700000  0.31400000  1
  H  H26  1  0.24230000  0.07970000  0.92610000  1
  H  H27  1  0.24230000  0.42030000  0.57390000  1
  H  H28  1  0.24230000  0.57390000  0.42030000  1
  H  H29  1  0.24230000  0.92610000  0.07970000  1
  H  H30  1  0.25770000  0.07970000  0.57390000  1
  H  H31  1  0.25770000  0.42030000  0.92610000  1
  H  H32  1  0.25770000  0.57390000  0.07970000  1
  H  H33  1  0.25770000  0.92610000  0.42030000  1
  H  H34  1  0.31400000  0.18600000  0.99700000  1
  H  H35  1  0.31400000  0.31400000  0.50300000  1
  H  H36  1  0.31400000  0.50300000  0.31400000  1
  H  H37  1  0.31400000  0.99700000  0.18600000  1
  H  H38  1  0.42030000  0.24230000  0.57390000  1
  H  H39  1  0.42030000  0.25770000  0.92610000  1
  H  H40  1  0.42030000  0.57390000  0.24230000  1
  H  H41  1  0.42030000  0.92610000  0.25770000  1
  H  H42  1  0.42610000  0.57970000  0.75770000  1
  H  H43  1  0.42610000  0.74230000  0.92030000  1
  H  H44  1  0.42610000  0.75770000  0.57970000  1
  H  H45  1  0.42610000  0.92030000  0.74230000  1
  H  H46  1  0.49700000  0.68600000  0.68600000  1
  H  H47  1  0.49700000  0.81400000  0.81400000  1
  H  H48  1  0.50300000  0.18600000  0.18600000  1
  H  H49  1  0.50300000  0.31400000  0.31400000  1
  H  H50  1  0.57390000  0.07970000  0.25770000  1
  H  H51  1  0.57390000  0.24230000  0.42030000  1
  H  H52  1  0.57390000  0.25770000  0.07970000  1
  H  H53  1  0.57390000  0.42030000  0.24230000  1
  H  H54  1  0.57970000  0.07390000  0.74230000  1
  H  H55  1  0.57970000  0.42610000  0.75770000  1
  H  H56  1  0.57970000  0.74230000  0.07390000  1
  H  H57  1  0.57970000  0.75770000  0.42610000  1
  H  H58  1  0.68600000  0.00300000  0.81400000  1
  H  H59  1  0.68600000  0.49700000  0.68600000  1
  H  H60  1  0.68600000  0.68600000  0.49700000  1
  H  H61  1  0.68600000  0.81400000  0.00300000  1
  H  H62  1  0.74230000  0.07390000  0.57970000  1
  H  H63  1  0.74230000  0.42610000  0.92030000  1
  H  H64  1  0.74230000  0.57970000  0.07390000  1
  H  H65  1  0.74230000  0.92030000  0.42610000  1
  H  H66  1  0.75770000  0.07390000  0.92030000  1
  H  H67  1  0.75770000  0.42610000  0.57970000  1
  H  H68  1  0.75770000  0.57970000  0.42610000  1
  H  H69  1  0.75770000  0.92030000  0.07390000  1
  H  H70  1  0.81400000  0.00300000  0.68600000  1
  H  H71  1  0.81400000  0.49700000  0.81400000  1
  H  H72  1  0.81400000  0.68600000  0.00300000  1
  H  H73  1  0.81400000  0.81400000  0.49700000  1
  H  H74  1  0.92030000  0.07390000  0.75770000  1
  H  H75  1  0.92030000  0.42610000  0.74230000  1
  H  H76  1  0.92030000  0.74230000  0.42610000  1
  H  H77  1  0.92030000  0.75770000  0.07390000  1
  H  H78  1  0.92610000  0.07970000  0.24230000  1
  H  H79  1  0.92610000  0.24230000  0.07970000  1
  H  H80  1  0.92610000  0.25770000  0.42030000  1
  H  H81  1  0.92610000  0.42030000  0.25770000  1
  H  H82  1  0.99700000  0.18600000  0.31400000  1
  H  H83  1  0.99700000  0.31400000  0.18600000  1
  C  C84  1  0.05730000  0.67130000  0.82870000  1
  C  C85  1  0.05730000  0.82870000  0.67130000  1
  C  C86  1  0.10080000  0.60860000  0.78620000  1
  C  C87  1  0.10080000  0.71380000  0.89140000  1
  C  C88  1  0.10080000  0.78620000  0.60860000  1
  C  C89  1  0.10080000  0.89140000  0.71380000  1
  C  C90  1  0.10860000  0.21380000  0.60080000  1
  C  C91  1  0.10860000  0.28620000  0.89920000  1
  C  C92  1  0.10860000  0.60080000  0.21380000  1
  C  C93  1  0.10860000  0.89920000  0.28620000  1
  C  C94  1  0.12780000  0.12780000  0.71880000  1
  C  C95  1  0.12780000  0.37220000  0.78120000  1
  C  C96  1  0.12780000  0.71880000  0.12780000  1
  C  C97  1  0.12780000  0.78120000  0.37220000  1
  C  C98  1  0.17130000  0.17130000  0.55730000  1
  C  C99  1  0.17130000  0.32870000  0.94270000  1
  C  C100  1  0.17130000  0.55730000  0.17130000  1
  C  C101  1  0.17130000  0.94270000  0.32870000  1
  C  C102  1  0.21380000  0.10860000  0.60080000  1
  C  C103  1  0.21380000  0.39140000  0.89920000  1
  C  C104  1  0.21380000  0.60080000  0.10860000  1
  C  C105  1  0.21380000  0.89920000  0.39140000  1
  C  C106  1  0.21880000  0.62780000  0.87220000  1
  C  C107  1  0.21880000  0.87220000  0.62780000  1
  C  C108  1  0.28120000  0.62780000  0.62780000  1
  C  C109  1  0.28120000  0.87220000  0.87220000  1
  C  C110  1  0.28620000  0.10860000  0.89920000  1
  C  C111  1  0.28620000  0.39140000  0.60080000  1
  C  C112  1  0.28620000  0.60080000  0.39140000  1
  C  C113  1  0.28620000  0.89920000  0.10860000  1
  C  C114  1  0.32870000  0.17130000  0.94270000  1
  C  C115  1  0.32870000  0.32870000  0.55730000  1
  C  C116  1  0.32870000  0.55730000  0.32870000  1
  C  C117  1  0.32870000  0.94270000  0.17130000  1
  C  C118  1  0.37220000  0.12780000  0.78120000  1
  C  C119  1  0.37220000  0.37220000  0.71880000  1
  C  C120  1  0.37220000  0.71880000  0.37220000  1
  C  C121  1  0.37220000  0.78120000  0.12780000  1
  C  C122  1  0.39140000  0.21380000  0.89920000  1
  C  C123  1  0.39140000  0.28620000  0.60080000  1
  C  C124  1  0.39140000  0.60080000  0.28620000  1
  C  C125  1  0.39140000  0.89920000  0.21380000  1
  C  C126  1  0.39920000  0.60860000  0.71380000  1
  C  C127  1  0.39920000  0.71380000  0.60860000  1
  C  C128  1  0.39920000  0.78620000  0.89140000  1
  C  C129  1  0.39920000  0.89140000  0.78620000  1
  C  C130  1  0.44270000  0.67130000  0.67130000  1
  C  C131  1  0.44270000  0.82870000  0.82870000  1
  C  C132  1  0.55730000  0.17130000  0.17130000  1
  C  C133  1  0.55730000  0.32870000  0.32870000  1
  C  C134  1  0.60080000  0.10860000  0.21380000  1
  C  C135  1  0.60080000  0.21380000  0.10860000  1
  C  C136  1  0.60080000  0.28620000  0.39140000  1
  C  C137  1  0.60080000  0.39140000  0.28620000  1
  C  C138  1  0.60860000  0.10080000  0.78620000  1
  C  C139  1  0.60860000  0.39920000  0.71380000  1
  C  C140  1  0.60860000  0.71380000  0.39920000  1
  C  C141  1  0.60860000  0.78620000  0.10080000  1
  C  C142  1  0.62780000  0.21880000  0.87220000  1
  C  C143  1  0.62780000  0.28120000  0.62780000  1
  C  C144  1  0.62780000  0.62780000  0.28120000  1
  C  C145  1  0.62780000  0.87220000  0.21880000  1
  C  C146  1  0.67130000  0.05730000  0.82870000  1
  C  C147  1  0.67130000  0.44270000  0.67130000  1
  C  C148  1  0.67130000  0.67130000  0.44270000  1
  C  C149  1  0.67130000  0.82870000  0.05730000  1
  C  C150  1  0.71380000  0.10080000  0.89140000  1
  C  C151  1  0.71380000  0.39920000  0.60860000  1
  C  C152  1  0.71380000  0.60860000  0.39920000  1
  C  C153  1  0.71380000  0.89140000  0.10080000  1
  C  C154  1  0.71880000  0.12780000  0.12780000  1
  C  C155  1  0.71880000  0.37220000  0.37220000  1
  C  C156  1  0.78120000  0.12780000  0.37220000  1
  C  C157  1  0.78120000  0.37220000  0.12780000  1
  C  C158  1  0.78620000  0.10080000  0.60860000  1
  C  C159  1  0.78620000  0.39920000  0.89140000  1
  C  C160  1  0.78620000  0.60860000  0.10080000  1
  C  C161  1  0.78620000  0.89140000  0.39920000  1
  C  C162  1  0.82870000  0.05730000  0.67130000  1
  C  C163  1  0.82870000  0.44270000  0.82870000  1
  C  C164  1  0.82870000  0.67130000  0.05730000  1
  C  C165  1  0.82870000  0.82870000  0.44270000  1
  C  C166  1  0.87220000  0.21880000  0.62780000  1
  C  C167  1  0.87220000  0.28120000  0.87220000  1
  C  C168  1  0.87220000  0.62780000  0.21880000  1
  C  C169  1  0.87220000  0.87220000  0.28120000  1
  C  C170  1  0.89140000  0.10080000  0.71380000  1
  C  C171  1  0.89140000  0.39920000  0.78620000  1
  C  C172  1  0.89140000  0.71380000  0.10080000  1
  C  C173  1  0.89140000  0.78620000  0.39920000  1
  C  C174  1  0.89920000  0.10860000  0.28620000  1
  C  C175  1  0.89920000  0.21380000  0.39140000  1
  C  C176  1  0.89920000  0.28620000  0.10860000  1
  C  C177  1  0.89920000  0.39140000  0.21380000  1
  C  C178  1  0.94270000  0.17130000  0.32870000  1
  C  C179  1  0.94270000  0.32870000  0.17130000  1
  N  N180  1  0.08840000  0.19400000  0.67950000  1
  N  N181  1  0.08840000  0.30600000  0.82050000  1
  N  N182  1  0.08840000  0.67950000  0.19400000  1
  N  N183  1  0.08840000  0.82050000  0.30600000  1
  N  N184  1  0.17950000  0.58840000  0.80600000  1
  N  N185  1  0.17950000  0.69400000  0.91160000  1
  N  N186  1  0.17950000  0.80600000  0.58840000  1
  N  N187  1  0.17950000  0.91160000  0.69400000  1
  N  N188  1  0.19400000  0.08840000  0.67950000  1
  N  N189  1  0.19400000  0.41160000  0.82050000  1
  N  N190  1  0.19400000  0.67950000  0.08840000  1
  N  N191  1  0.19400000  0.82050000  0.41160000  1
  N  N192  1  0.30600000  0.08840000  0.82050000  1
  N  N193  1  0.30600000  0.41160000  0.67950000  1
  N  N194  1  0.30600000  0.67950000  0.41160000  1
  N  N195  1  0.30600000  0.82050000  0.08840000  1
  N  N196  1  0.32050000  0.58840000  0.69400000  1
  N  N197  1  0.32050000  0.69400000  0.58840000  1
  N  N198  1  0.32050000  0.80600000  0.91160000  1
  N  N199  1  0.32050000  0.91160000  0.80600000  1
  N  N200  1  0.41160000  0.19400000  0.82050000  1
  N  N201  1  0.41160000  0.30600000  0.67950000  1
  N  N202  1  0.41160000  0.67950000  0.30600000  1
  N  N203  1  0.41160000  0.82050000  0.19400000  1
  N  N204  1  0.58840000  0.17950000  0.80600000  1
  N  N205  1  0.58840000  0.32050000  0.69400000  1
  N  N206  1  0.58840000  0.69400000  0.32050000  1
  N  N207  1  0.58840000  0.80600000  0.17950000  1
  N  N208  1  0.67950000  0.08840000  0.19400000  1
  N  N209  1  0.67950000  0.19400000  0.08840000  1
  N  N210  1  0.67950000  0.30600000  0.41160000  1
  N  N211  1  0.67950000  0.41160000  0.30600000  1
  N  N212  1  0.69400000  0.17950000  0.91160000  1
  N  N213  1  0.69400000  0.32050000  0.58840000  1
  N  N214  1  0.69400000  0.58840000  0.32050000  1
  N  N215  1  0.69400000  0.91160000  0.17950000  1
  N  N216  1  0.80600000  0.17950000  0.58840000  1
  N  N217  1  0.80600000  0.32050000  0.91160000  1
  N  N218  1  0.80600000  0.58840000  0.17950000  1
  N  N219  1  0.80600000  0.91160000  0.32050000  1
  N  N220  1  0.82050000  0.08840000  0.30600000  1
  N  N221  1  0.82050000  0.19400000  0.41160000  1
  N  N222  1  0.82050000  0.30600000  0.08840000  1
  N  N223  1  0.82050000  0.41160000  0.19400000  1
  N  N224  1  0.91160000  0.17950000  0.69400000  1
  N  N225  1  0.91160000  0.32050000  0.80600000  1
  N  N226  1  0.91160000  0.69400000  0.17950000  1
  N  N227  1  0.91160000  0.80600000  0.32050000  1
  O  O228  1  0.10420000  0.10420000  0.79080000  1
  O  O229  1  0.10420000  0.39580000  0.70920000  1
  O  O230  1  0.10420000  0.70920000  0.39580000  1
  O  O231  1  0.10420000  0.79080000  0.10420000  1
  O  O232  1  0.20920000  0.60420000  0.60420000  1
  O  O233  1  0.20920000  0.89580000  0.89580000  1
  O  O234  1  0.29080000  0.60420000  0.89580000  1
  O  O235  1  0.29080000  0.89580000  0.60420000  1
  O  O236  1  0.39580000  0.10420000  0.70920000  1
  O  O237  1  0.39580000  0.39580000  0.79080000  1
  O  O238  1  0.39580000  0.70920000  0.10420000  1
  O  O239  1  0.39580000  0.79080000  0.39580000  1
  O  O240  1  0.60420000  0.20920000  0.60420000  1
  O  O241  1  0.60420000  0.29080000  0.89580000  1
  O  O242  1  0.60420000  0.60420000  0.20920000  1
  O  O243  1  0.60420000  0.89580000  0.29080000  1
  O  O244  1  0.70920000  0.10420000  0.39580000  1
  O  O245  1  0.70920000  0.39580000  0.10420000  1
  O  O246  1  0.79080000  0.10420000  0.10420000  1
  O  O247  1  0.79080000  0.39580000  0.39580000  1
  O  O248  1  0.89580000  0.20920000  0.89580000  1
  O  O249  1  0.89580000  0.29080000  0.60420000  1
  O  O250  1  0.89580000  0.60420000  0.29080000  1
  O  O251  1  0.89580000  0.89580000  0.20920000  1
