# generated using pymatgen
data_Zn3H20C30(N2O3)4
_symmetry_space_group_name_H-M   'P 1'
_cell_length_a   12.03000000
_cell_length_b   12.85420000
_cell_length_c   12.85420000
_cell_angle_alpha   108.01100000
_cell_angle_beta   106.13500000
_cell_angle_gamma   106.13500000
_symmetry_Int_Tables_number   1
_chemical_formula_structural   Zn3H20C30(N2O3)4
_chemical_formula_sum   'Zn6 H40 C60 N16 O24'
_cell_volume   1665.63383651
_cell_formula_units_Z   2
loop_
 _symmetry_equiv_pos_site_id
 _symmetry_equiv_pos_as_xyz
  1  'x, y, z'
loop_
 _atom_site_type_symbol
 _atom_site_label
 _atom_site_symmetry_multiplicity
 _atom_site_fract_x
 _atom_site_fract_y
 _atom_site_fract_z
 _atom_site_occupancy
  Zn  Zn0  1  0.00952000  0.74519000  0.51123000  1
  Zn  Zn1  1  0.25000000  0.21973000  0.78027000  1
  Zn  Zn2  1  0.49048000  0.48877000  0.25481000  1
  Zn  Zn3  1  0.50952000  0.51123000  0.74519000  1
  Zn  Zn4  1  0.75000000  0.78027000  0.21973000  1
  Zn  Zn5  1  0.99048000  0.25481000  0.48877000  1
  H  H6  1  0.02500000  0.75960000  0.75840000  1
  H  H7  1  0.02600000  0.77400000  0.12000000  1
  H  H8  1  0.03800000  0.76030000  0.29370000  1
  H  H9  1  0.07000000  0.81200000  0.96400000  1
  H  H10  1  0.08100000  0.51490000  0.38710000  1
  H  H11  1  0.13200000  0.49560000  0.20640000  1
  H  H12  1  0.18400000  0.18260000  0.33540000  1
  H  H13  1  0.19900000  0.55010000  0.08590000  1
  H  H14  1  0.23000000  0.58220000  0.92580000  1
  H  H15  1  0.24900000  0.38100000  0.31900000  1
  H  H16  1  0.25100000  0.68100000  0.61900000  1
  H  H17  1  0.27000000  0.07420000  0.41780000  1
  H  H18  1  0.30100000  0.91410000  0.44990000  1
  H  H19  1  0.31600000  0.66460000  0.81740000  1
  H  H20  1  0.36800000  0.79360000  0.50440000  1
  H  H21  1  0.41900000  0.61290000  0.48510000  1
  H  H22  1  0.43000000  0.03600000  0.18800000  1
  H  H23  1  0.46200000  0.70630000  0.23970000  1
  H  H24  1  0.47400000  0.88000000  0.22600000  1
  H  H25  1  0.47500000  0.24160000  0.24040000  1
  H  H26  1  0.52500000  0.75840000  0.75960000  1
  H  H27  1  0.52600000  0.12000000  0.77400000  1
  H  H28  1  0.53800000  0.29370000  0.76030000  1
  H  H29  1  0.57000000  0.96400000  0.81200000  1
  H  H30  1  0.58100000  0.38710000  0.51490000  1
  H  H31  1  0.63200000  0.20640000  0.49560000  1
  H  H32  1  0.68400000  0.33540000  0.18260000  1
  H  H33  1  0.69900000  0.08590000  0.55010000  1
  H  H34  1  0.73000000  0.92580000  0.58220000  1
  H  H35  1  0.74900000  0.31900000  0.38100000  1
  H  H36  1  0.75100000  0.61900000  0.68100000  1
  H  H37  1  0.77000000  0.41780000  0.07420000  1
  H  H38  1  0.80100000  0.44990000  0.91410000  1
  H  H39  1  0.81600000  0.81740000  0.66460000  1
  H  H40  1  0.86800000  0.50440000  0.79360000  1
  H  H41  1  0.91900000  0.48510000  0.61290000  1
  H  H42  1  0.93000000  0.18800000  0.03600000  1
  H  H43  1  0.96200000  0.23970000  0.70630000  1
  H  H44  1  0.97400000  0.22600000  0.88000000  1
  H  H45  1  0.97500000  0.24040000  0.24160000  1
  C  C46  1  0.05510000  0.69705000  0.29115000  1
  C  C47  1  0.07080000  0.73695000  0.08065000  1
  C  C48  1  0.07220000  0.98783000  0.66937000  1
  C  C49  1  0.08110000  0.55892000  0.34108000  1
  C  C50  1  0.09030000  0.73931000  0.75049000  1
  C  C51  1  0.09390000  0.75919000  0.98821000  1
  C  C52  1  0.10610000  0.54513000  0.24367000  1
  C  C53  1  0.11120000  0.65739000  0.11561000  1
  C  C54  1  0.15320000  0.70015000  0.93025000  1
  C  C55  1  0.17190000  0.99151000  0.61409000  1
  C  C56  1  0.17240000  0.60148000  0.05892000  1
  C  C57  1  0.19270000  0.62238000  0.96522000  1
  C  C58  1  0.21640000  0.69620000  0.67500000  1
  C  C59  1  0.24840000  0.68630000  0.77850000  1
  C  C60  1  0.25000000  0.34340000  0.65660000  1
  C  C61  1  0.25000000  0.41770000  0.58230000  1
  C  C62  1  0.25160000  0.22150000  0.31370000  1
  C  C63  1  0.28360000  0.32500000  0.30380000  1
  C  C64  1  0.30730000  0.03478000  0.37762000  1
  C  C65  1  0.32760000  0.94108000  0.39852000  1
  C  C66  1  0.32810000  0.38591000  0.00849000  1
  C  C67  1  0.34680000  0.06975000  0.29985000  1
  C  C68  1  0.38880000  0.88439000  0.34261000  1
  C  C69  1  0.39390000  0.75633000  0.45487000  1
  C  C70  1  0.40610000  0.01179000  0.24081000  1
  C  C71  1  0.40970000  0.24951000  0.26069000  1
  C  C72  1  0.41890000  0.65892000  0.44108000  1
  C  C73  1  0.42780000  0.33063000  0.01217000  1
  C  C74  1  0.42920000  0.91935000  0.26305000  1
  C  C75  1  0.44490000  0.70885000  0.30295000  1
  C  C76  1  0.55510000  0.29115000  0.69705000  1
  C  C77  1  0.57080000  0.08065000  0.73695000  1
  C  C78  1  0.57220000  0.66937000  0.98783000  1
  C  C79  1  0.58110000  0.34108000  0.55892000  1
  C  C80  1  0.59030000  0.75049000  0.73931000  1
  C  C81  1  0.59390000  0.98821000  0.75919000  1
  C  C82  1  0.60610000  0.24367000  0.54513000  1
  C  C83  1  0.61120000  0.11561000  0.65739000  1
  C  C84  1  0.65320000  0.93025000  0.70015000  1
  C  C85  1  0.67190000  0.61409000  0.99151000  1
  C  C86  1  0.67240000  0.05892000  0.60148000  1
  C  C87  1  0.69270000  0.96522000  0.62238000  1
  C  C88  1  0.71640000  0.67500000  0.69620000  1
  C  C89  1  0.74840000  0.77850000  0.68630000  1
  C  C90  1  0.75000000  0.58230000  0.41770000  1
  C  C91  1  0.75000000  0.65660000  0.34340000  1
  C  C92  1  0.75160000  0.31370000  0.22150000  1
  C  C93  1  0.78360000  0.30380000  0.32500000  1
  C  C94  1  0.80730000  0.37762000  0.03478000  1
  C  C95  1  0.82760000  0.39852000  0.94108000  1
  C  C96  1  0.82810000  0.00849000  0.38591000  1
  C  C97  1  0.84680000  0.29985000  0.06975000  1
  C  C98  1  0.88880000  0.34261000  0.88439000  1
  C  C99  1  0.89390000  0.45487000  0.75633000  1
  C  C100  1  0.90610000  0.24081000  0.01179000  1
  C  C101  1  0.90970000  0.26069000  0.24951000  1
  C  C102  1  0.91890000  0.44108000  0.65892000  1
  C  C103  1  0.92780000  0.01217000  0.33063000  1
  C  C104  1  0.92920000  0.26305000  0.91935000  1
  C  C105  1  0.94490000  0.30295000  0.70885000  1
  N  N106  1  0.04830000  0.65456000  0.37064000  1
  N  N107  1  0.09030000  0.63441000  0.21199000  1
  N  N108  1  0.11670000  0.72971000  0.65669000  1
  N  N109  1  0.16630000  0.71365000  0.82735000  1
  N  N110  1  0.33370000  0.17265000  0.28635000  1
  N  N111  1  0.38330000  0.34331000  0.27029000  1
  N  N112  1  0.40970000  0.78801000  0.36559000  1
  N  N113  1  0.45170000  0.62936000  0.34544000  1
  N  N114  1  0.54830000  0.37064000  0.65456000  1
  N  N115  1  0.59030000  0.21199000  0.63441000  1
  N  N116  1  0.61670000  0.65669000  0.72971000  1
  N  N117  1  0.66630000  0.82735000  0.71365000  1
  N  N118  1  0.83370000  0.28635000  0.17265000  1
  N  N119  1  0.88330000  0.27029000  0.34331000  1
  N  N120  1  0.90970000  0.36559000  0.78801000  1
  N  N121  1  0.95170000  0.34544000  0.62936000  1
  O  O122  1  0.01630000  0.10992000  0.36962000  1
  O  O123  1  0.09020000  0.08372000  0.74996000  1
  O  O124  1  0.14750000  0.38958000  0.50104000  1
  O  O125  1  0.14900000  0.26085000  0.63131000  1
  O  O126  1  0.15130000  0.89783000  0.53263000  1
  O  O127  1  0.23570000  0.34380000  0.91176000  1
  O  O128  1  0.26430000  0.08824000  0.65620000  1
  O  O129  1  0.34870000  0.46737000  0.10217000  1
  O  O130  1  0.35100000  0.36869000  0.73915000  1
  O  O131  1  0.35250000  0.49896000  0.61042000  1
  O  O132  1  0.40980000  0.25004000  0.91628000  1
  O  O133  1  0.48370000  0.63038000  0.89008000  1
  O  O134  1  0.51630000  0.36962000  0.10992000  1
  O  O135  1  0.59020000  0.74996000  0.08372000  1
  O  O136  1  0.64750000  0.50104000  0.38958000  1
  O  O137  1  0.64900000  0.63131000  0.26085000  1
  O  O138  1  0.65130000  0.53263000  0.89783000  1
  O  O139  1  0.73570000  0.91176000  0.34380000  1
  O  O140  1  0.76430000  0.65620000  0.08824000  1
  O  O141  1  0.84870000  0.10217000  0.46737000  1
  O  O142  1  0.85100000  0.73915000  0.36869000  1
  O  O143  1  0.85250000  0.61042000  0.49896000  1
  O  O144  1  0.90980000  0.91628000  0.25004000  1
  O  O145  1  0.98370000  0.89008000  0.63038000  1
