# generated using pymatgen
data_U3H9C27O19
_symmetry_space_group_name_H-M   'P 1'
_cell_length_a   9.77360000
_cell_length_b   18.35390000
_cell_length_c   18.35390000
_cell_angle_alpha   120.00000000
_cell_angle_beta   90.00000000
_cell_angle_gamma   90.00000000
_symmetry_Int_Tables_number   1
_chemical_formula_structural   U3H9C27O19
_chemical_formula_sum   'U6 H18 C54 O38'
_cell_volume   2851.29343981
_cell_formula_units_Z   2
loop_
 _symmetry_equiv_pos_site_id
 _symmetry_equiv_pos_as_xyz
  1  'x, y, z'
loop_
 _atom_site_type_symbol
 _atom_site_label
 _atom_site_symmetry_multiplicity
 _atom_site_fract_x
 _atom_site_fract_y
 _atom_site_fract_z
 _atom_site_occupancy
  U  U0  1  0.25000000  0.64292000  0.44095000  1
  U  U1  1  0.25000000  0.55905000  0.20197000  1
  U  U2  1  0.25000000  0.79803000  0.35708000  1
  U  U3  1  0.75000000  0.20197000  0.64292000  1
  U  U4  1  0.75000000  0.44095000  0.79803000  1
  U  U5  1  0.75000000  0.35708000  0.55905000  1
  H  H6  1  0.04150000  0.40040000  0.91590000  1
  H  H7  1  0.04150000  0.08410000  0.48450000  1
  H  H8  1  0.04150000  0.51550000  0.59960000  1
  H  H9  1  0.25000000  0.24370000  0.70700000  1
  H  H10  1  0.25000000  0.46330000  0.75630000  1
  H  H11  1  0.25000000  0.29300000  0.53670000  1
  H  H12  1  0.45850000  0.40040000  0.91590000  1
  H  H13  1  0.45850000  0.08410000  0.48450000  1
  H  H14  1  0.45850000  0.51550000  0.59960000  1
  H  H15  1  0.54150000  0.48450000  0.40040000  1
  H  H16  1  0.54150000  0.91590000  0.51550000  1
  H  H17  1  0.54150000  0.59960000  0.08410000  1
  H  H18  1  0.75000000  0.70700000  0.46330000  1
  H  H19  1  0.75000000  0.53670000  0.24370000  1
  H  H20  1  0.75000000  0.75630000  0.29300000  1
  H  H21  1  0.95850000  0.48450000  0.40040000  1
  H  H22  1  0.95850000  0.91590000  0.51550000  1
  H  H23  1  0.95850000  0.59960000  0.08410000  1
  C  C24  1  0.00640000  0.52810000  0.28830000  1
  C  C25  1  0.00640000  0.76020000  0.47190000  1
  C  C26  1  0.00640000  0.71170000  0.23980000  1
  C  C27  1  0.12430000  0.37820000  0.88890000  1
  C  C28  1  0.12430000  0.11110000  0.48930000  1
  C  C29  1  0.12430000  0.51070000  0.62180000  1
  C  C30  1  0.12700000  0.31760000  0.80470000  1
  C  C31  1  0.12700000  0.19530000  0.51290000  1
  C  C32  1  0.12700000  0.48710000  0.68240000  1
  C  C33  1  0.25000000  0.55820000  0.53260000  1
  C  C34  1  0.25000000  0.46740000  0.02560000  1
  C  C35  1  0.25000000  0.40610000  0.93370000  1
  C  C36  1  0.25000000  0.28610000  0.76310000  1
  C  C37  1  0.25000000  0.97440000  0.44180000  1
  C  C38  1  0.25000000  0.06630000  0.47240000  1
  C  C39  1  0.25000000  0.23690000  0.52300000  1
  C  C40  1  0.25000000  0.47700000  0.71390000  1
  C  C41  1  0.25000000  0.52760000  0.59390000  1
  C  C42  1  0.37300000  0.31760000  0.80470000  1
  C  C43  1  0.37300000  0.19530000  0.51290000  1
  C  C44  1  0.37300000  0.48710000  0.68240000  1
  C  C45  1  0.37570000  0.37820000  0.88890000  1
  C  C46  1  0.37570000  0.11110000  0.48930000  1
  C  C47  1  0.37570000  0.51070000  0.62180000  1
  C  C48  1  0.49360000  0.52810000  0.28830000  1
  C  C49  1  0.49360000  0.76020000  0.47190000  1
  C  C50  1  0.49360000  0.71170000  0.23980000  1
  C  C51  1  0.50640000  0.28830000  0.76020000  1
  C  C52  1  0.50640000  0.23980000  0.52810000  1
  C  C53  1  0.50640000  0.47190000  0.71170000  1
  C  C54  1  0.62430000  0.48930000  0.37820000  1
  C  C55  1  0.62430000  0.88890000  0.51070000  1
  C  C56  1  0.62430000  0.62180000  0.11110000  1
  C  C57  1  0.62700000  0.51290000  0.31760000  1
  C  C58  1  0.62700000  0.80470000  0.48710000  1
  C  C59  1  0.62700000  0.68240000  0.19530000  1
  C  C60  1  0.75000000  0.47240000  0.40610000  1
  C  C61  1  0.75000000  0.52300000  0.28610000  1
  C  C62  1  0.75000000  0.76310000  0.47700000  1
  C  C63  1  0.75000000  0.93370000  0.52760000  1
  C  C64  1  0.75000000  0.02560000  0.55820000  1
  C  C65  1  0.75000000  0.71390000  0.23690000  1
  C  C66  1  0.75000000  0.59390000  0.06630000  1
  C  C67  1  0.75000000  0.53260000  0.97440000  1
  C  C68  1  0.75000000  0.44180000  0.46740000  1
  C  C69  1  0.87300000  0.51290000  0.31760000  1
  C  C70  1  0.87300000  0.80470000  0.48710000  1
  C  C71  1  0.87300000  0.68240000  0.19530000  1
  C  C72  1  0.87570000  0.48930000  0.37820000  1
  C  C73  1  0.87570000  0.88890000  0.51070000  1
  C  C74  1  0.87570000  0.62180000  0.11110000  1
  C  C75  1  0.99360000  0.28830000  0.76020000  1
  C  C76  1  0.99360000  0.23980000  0.52810000  1
  C  C77  1  0.99360000  0.47190000  0.71170000  1
  O  O78  1  0.00870000  0.68800000  0.46180000  1
  O  O79  1  0.00870000  0.53820000  0.22620000  1
  O  O80  1  0.00870000  0.77380000  0.31200000  1
  O  O81  1  0.11600000  0.53300000  0.32920000  1
  O  O82  1  0.11600000  0.79620000  0.46700000  1
  O  O83  1  0.11600000  0.67080000  0.20380000  1
  O  O84  1  0.13800000  0.57100000  0.50600000  1
  O  O85  1  0.13800000  0.49400000  0.06500000  1
  O  O86  1  0.13800000  0.93500000  0.42900000  1
  O  O87  1  0.25000000  0.66666667  0.33333333  1
  O  O88  1  0.36200000  0.57100000  0.50600000  1
  O  O89  1  0.36200000  0.49400000  0.06500000  1
  O  O90  1  0.36200000  0.93500000  0.42900000  1
  O  O91  1  0.38400000  0.53300000  0.32920000  1
  O  O92  1  0.38400000  0.79620000  0.46700000  1
  O  O93  1  0.38400000  0.67080000  0.20380000  1
  O  O94  1  0.49130000  0.68800000  0.46180000  1
  O  O95  1  0.49130000  0.53820000  0.22620000  1
  O  O96  1  0.49130000  0.77380000  0.31200000  1
  O  O97  1  0.50870000  0.22620000  0.68800000  1
  O  O98  1  0.50870000  0.46180000  0.77380000  1
  O  O99  1  0.50870000  0.31200000  0.53820000  1
  O  O100  1  0.61600000  0.32920000  0.79620000  1
  O  O101  1  0.61600000  0.20380000  0.53300000  1
  O  O102  1  0.61600000  0.46700000  0.67080000  1
  O  O103  1  0.63800000  0.06500000  0.57100000  1
  O  O104  1  0.63800000  0.50600000  0.93500000  1
  O  O105  1  0.63800000  0.42900000  0.49400000  1
  O  O106  1  0.75000000  0.33333333  0.66666667  1
  O  O107  1  0.86200000  0.06500000  0.57100000  1
  O  O108  1  0.86200000  0.50600000  0.93500000  1
  O  O109  1  0.86200000  0.42900000  0.49400000  1
  O  O110  1  0.88400000  0.32920000  0.79620000  1
  O  O111  1  0.88400000  0.20380000  0.53300000  1
  O  O112  1  0.88400000  0.46700000  0.67080000  1
  O  O113  1  0.99130000  0.22620000  0.68800000  1
  O  O114  1  0.99130000  0.46180000  0.77380000  1
  O  O115  1  0.99130000  0.31200000  0.53820000  1
