# generated using pymatgen
data_MnH10C14(NO2)2
_symmetry_space_group_name_H-M   'P 1'
_cell_length_a   11.83260000
_cell_length_b   11.83260000
_cell_length_c   16.44400000
_cell_angle_alpha   73.15830000
_cell_angle_beta   73.15830000
_cell_angle_gamma   78.86840000
_symmetry_Int_Tables_number   1
_chemical_formula_structural   MnH10C14(NO2)2
_chemical_formula_sum   'Mn4 H40 C56 N8 O16'
_cell_volume   2094.05096040
_cell_formula_units_Z   4
loop_
 _symmetry_equiv_pos_site_id
 _symmetry_equiv_pos_as_xyz
  1  'x, y, z'
loop_
 _atom_site_type_symbol
 _atom_site_label
 _atom_site_symmetry_multiplicity
 _atom_site_fract_x
 _atom_site_fract_y
 _atom_site_fract_z
 _atom_site_occupancy
  Mn  Mn0  1  0.61985000  0.83611000  0.04414000  1
  Mn  Mn1  1  0.83611000  0.61985000  0.54414000  1
  Mn  Mn2  1  0.16389000  0.38015000  0.45586000  1
  Mn  Mn3  1  0.38015000  0.16389000  0.95586000  1
  H  H4  1  0.57230000  0.98130000  0.54780000  1
  H  H5  1  0.51540000  0.86000000  0.25280000  1
  H  H6  1  0.54810000  0.83350000  0.46180000  1
  H  H7  1  0.66450000  0.81350000  0.77310000  1
  H  H8  1  0.41600000  0.77460000  0.98420000  1
  H  H9  1  0.62580000  0.73220000  0.32750000  1
  H  H10  1  0.36100000  0.71140000  0.49020000  1
  H  H11  1  0.63830000  0.67010000  0.42300000  1
  H  H12  1  0.81350000  0.66450000  0.27310000  1
  H  H13  1  0.28860000  0.63900000  0.00980000  1
  H  H14  1  0.67010000  0.63830000  0.92300000  1
  H  H15  1  0.73220000  0.62580000  0.82750000  1
  H  H16  1  0.22540000  0.58400000  0.51580000  1
  H  H17  1  0.56490000  0.58330000  0.64920000  1
  H  H18  1  0.53680000  0.57820000  0.82270000  1
  H  H19  1  0.98130000  0.57230000  0.04780000  1
  H  H20  1  0.58330000  0.56490000  0.14920000  1
  H  H21  1  0.83350000  0.54810000  0.96180000  1
  H  H22  1  0.57820000  0.53680000  0.32270000  1
  H  H23  1  0.86000000  0.51540000  0.75280000  1
  H  H24  1  0.14000000  0.48460000  0.24720000  1
  H  H25  1  0.42180000  0.46320000  0.67730000  1
  H  H26  1  0.16650000  0.45190000  0.03820000  1
  H  H27  1  0.41670000  0.43510000  0.85080000  1
  H  H28  1  0.01870000  0.42770000  0.95220000  1
  H  H29  1  0.46320000  0.42180000  0.17730000  1
  H  H30  1  0.43510000  0.41670000  0.35080000  1
  H  H31  1  0.77460000  0.41600000  0.48420000  1
  H  H32  1  0.26780000  0.37420000  0.17250000  1
  H  H33  1  0.32990000  0.36170000  0.07700000  1
  H  H34  1  0.71140000  0.36100000  0.99020000  1
  H  H35  1  0.18650000  0.33550000  0.72690000  1
  H  H36  1  0.36170000  0.32990000  0.57700000  1
  H  H37  1  0.63900000  0.28860000  0.50980000  1
  H  H38  1  0.37420000  0.26780000  0.67250000  1
  H  H39  1  0.58400000  0.22540000  0.01580000  1
  H  H40  1  0.33550000  0.18650000  0.22690000  1
  H  H41  1  0.45190000  0.16650000  0.53820000  1
  H  H42  1  0.48460000  0.14000000  0.74720000  1
  H  H43  1  0.42770000  0.01870000  0.45220000  1
  C  C44  1  0.57240000  0.98040000  0.60450000  1
  C  C45  1  0.57070000  0.97370000  0.77460000  1
  C  C46  1  0.56970000  0.97270000  0.86670000  1
  C  C47  1  0.48180000  0.92540000  0.27580000  1
  C  C48  1  0.48430000  0.92230000  0.36180000  1
  C  C49  1  0.62880000  0.88260000  0.65340000  1
  C  C50  1  0.62720000  0.87940000  0.73960000  1
  C  C51  1  0.69350000  0.78270000  0.61460000  1
  C  C52  1  0.58260000  0.71540000  0.38880000  1
  C  C53  1  0.42340000  0.70380000  0.02660000  1
  C  C54  1  0.78270000  0.69350000  0.11460000  1
  C  C55  1  0.37880000  0.65240000  0.45990000  1
  C  C56  1  0.48700000  0.64020000  0.40170000  1
  C  C57  1  0.88260000  0.62880000  0.15340000  1
  C  C58  1  0.87940000  0.62720000  0.23960000  1
  C  C59  1  0.34760000  0.62120000  0.04010000  1
  C  C60  1  0.71540000  0.58260000  0.88880000  1
  C  C61  1  0.52120000  0.58260000  0.12190000  1
  C  C62  1  0.29620000  0.57660000  0.47340000  1
  C  C63  1  0.98040000  0.57240000  0.10450000  1
  C  C64  1  0.97370000  0.57070000  0.27460000  1
  C  C65  1  0.97270000  0.56970000  0.36670000  1
  C  C66  1  0.50550000  0.55050000  0.36170000  1
  C  C67  1  0.58260000  0.52120000  0.62190000  1
  C  C68  1  0.07460000  0.51820000  0.22420000  1
  C  C69  1  0.07770000  0.51570000  0.13820000  1
  C  C70  1  0.35980000  0.51300000  0.09830000  1
  C  C71  1  0.55050000  0.50550000  0.86170000  1
  C  C72  1  0.44950000  0.49450000  0.13830000  1
  C  C73  1  0.64020000  0.48700000  0.90170000  1
  C  C74  1  0.92230000  0.48430000  0.86180000  1
  C  C75  1  0.92540000  0.48180000  0.77580000  1
  C  C76  1  0.41740000  0.47880000  0.37810000  1
  C  C77  1  0.49450000  0.44950000  0.63830000  1
  C  C78  1  0.02730000  0.43030000  0.63330000  1
  C  C79  1  0.02630000  0.42930000  0.72540000  1
  C  C80  1  0.01960000  0.42760000  0.89550000  1
  C  C81  1  0.70380000  0.42340000  0.52660000  1
  C  C82  1  0.47880000  0.41740000  0.87810000  1
  C  C83  1  0.28460000  0.41740000  0.11120000  1
  C  C84  1  0.65240000  0.37880000  0.95990000  1
  C  C85  1  0.12060000  0.37280000  0.76040000  1
  C  C86  1  0.11740000  0.37120000  0.84660000  1
  C  C87  1  0.51300000  0.35980000  0.59830000  1
  C  C88  1  0.62120000  0.34760000  0.54010000  1
  C  C89  1  0.21730000  0.30650000  0.88540000  1
  C  C90  1  0.57660000  0.29620000  0.97340000  1
  C  C91  1  0.41740000  0.28460000  0.61120000  1
  C  C92  1  0.30650000  0.21730000  0.38540000  1
  C  C93  1  0.37280000  0.12060000  0.26040000  1
  C  C94  1  0.37120000  0.11740000  0.34660000  1
  C  C95  1  0.51570000  0.07770000  0.63820000  1
  C  C96  1  0.51820000  0.07460000  0.72420000  1
  C  C97  1  0.43030000  0.02730000  0.13330000  1
  C  C98  1  0.42930000  0.02630000  0.22540000  1
  C  C99  1  0.42760000  0.01960000  0.39550000  1
  N  N100  1  0.53930000  0.82670000  0.41340000  1
  N  N101  1  0.50690000  0.68870000  0.07050000  1
  N  N102  1  0.82670000  0.53930000  0.91340000  1
  N  N103  1  0.68870000  0.50690000  0.57050000  1
  N  N104  1  0.31130000  0.49310000  0.42950000  1
  N  N105  1  0.17330000  0.46070000  0.08660000  1
  N  N106  1  0.49310000  0.31130000  0.92950000  1
  N  N107  1  0.46070000  0.17330000  0.58660000  1
  O  O108  1  0.47090000  0.93530000  0.10710000  1
  O  O109  1  0.61570000  0.87770000  0.91090000  1
  O  O110  1  0.69950000  0.78810000  0.53510000  1
  O  O111  1  0.69290000  0.74430000  0.16070000  1
  O  O112  1  0.78810000  0.69950000  0.03510000  1
  O  O113  1  0.74430000  0.69290000  0.66070000  1
  O  O114  1  0.87770000  0.61570000  0.41090000  1
  O  O115  1  0.06470000  0.52910000  0.39290000  1
  O  O116  1  0.93530000  0.47090000  0.60710000  1
  O  O117  1  0.12230000  0.38430000  0.58910000  1
  O  O118  1  0.25570000  0.30710000  0.33930000  1
  O  O119  1  0.21190000  0.30050000  0.96490000  1
  O  O120  1  0.30710000  0.25570000  0.83930000  1
  O  O121  1  0.30050000  0.21190000  0.46490000  1
  O  O122  1  0.38430000  0.12230000  0.08910000  1
  O  O123  1  0.52910000  0.06470000  0.89290000  1
