# generated using pymatgen
data_NiH5C9O5
_symmetry_space_group_name_H-M   'P 1'
_cell_length_a   13.34640000
_cell_length_b   13.89450000
_cell_length_c   14.56500000
_cell_angle_alpha   90.00000000
_cell_angle_beta   114.55300000
_cell_angle_gamma   90.00000000
_symmetry_Int_Tables_number   1
_chemical_formula_structural   NiH5C9O5
_chemical_formula_sum   'Ni8 H40 C72 O40'
_cell_volume   2456.72843589
_cell_formula_units_Z   8
loop_
 _symmetry_equiv_pos_site_id
 _symmetry_equiv_pos_as_xyz
  1  'x, y, z'
loop_
 _atom_site_type_symbol
 _atom_site_label
 _atom_site_symmetry_multiplicity
 _atom_site_fract_x
 _atom_site_fract_y
 _atom_site_fract_z
 _atom_site_occupancy
  Ni  Ni0  1  0.02330000  0.09877000  0.26308000  1
  Ni  Ni1  1  0.15827000  0.76583000  0.92509000  1
  Ni  Ni2  1  0.34173000  0.26583000  0.57491000  1
  Ni  Ni3  1  0.47670000  0.59877000  0.23692000  1
  Ni  Ni4  1  0.52330000  0.40123000  0.76308000  1
  Ni  Ni5  1  0.65827000  0.73417000  0.42509000  1
  Ni  Ni6  1  0.84173000  0.23417000  0.07491000  1
  Ni  Ni7  1  0.97670000  0.90123000  0.73692000  1
  H  H8  1  0.02590000  0.81600000  0.35200000  1
  H  H9  1  0.03550000  0.76610000  0.50160000  1
  H  H10  1  0.03720000  0.76630000  0.19740000  1
  H  H11  1  0.04230000  0.21210000  0.97420000  1
  H  H12  1  0.06700000  0.17060000  0.81940000  1
  H  H13  1  0.07540000  0.25390000  0.67690000  1
  H  H14  1  0.19710000  0.54800000  0.44390000  1
  H  H15  1  0.24040000  0.60040000  0.72930000  1
  H  H16  1  0.24320000  0.42150000  0.95930000  1
  H  H17  1  0.24900000  0.34570000  0.22770000  1
  H  H18  1  0.25100000  0.84570000  0.27230000  1
  H  H19  1  0.25680000  0.92150000  0.54070000  1
  H  H20  1  0.25960000  0.10040000  0.77070000  1
  H  H21  1  0.30290000  0.04800000  0.05610000  1
  H  H22  1  0.42460000  0.75390000  0.82310000  1
  H  H23  1  0.43300000  0.67060000  0.68060000  1
  H  H24  1  0.45770000  0.71210000  0.52580000  1
  H  H25  1  0.46280000  0.26630000  0.30260000  1
  H  H26  1  0.46450000  0.26610000  0.99840000  1
  H  H27  1  0.47410000  0.31600000  0.14800000  1
  H  H28  1  0.52590000  0.68400000  0.85200000  1
  H  H29  1  0.53550000  0.73390000  0.00160000  1
  H  H30  1  0.53720000  0.73370000  0.69740000  1
  H  H31  1  0.54230000  0.28790000  0.47420000  1
  H  H32  1  0.56700000  0.32940000  0.31940000  1
  H  H33  1  0.57540000  0.24610000  0.17690000  1
  H  H34  1  0.69710000  0.95200000  0.94390000  1
  H  H35  1  0.74040000  0.89960000  0.22930000  1
  H  H36  1  0.74320000  0.07850000  0.45930000  1
  H  H37  1  0.74900000  0.15430000  0.72770000  1
  H  H38  1  0.75100000  0.65430000  0.77230000  1
  H  H39  1  0.75680000  0.57850000  0.04070000  1
  H  H40  1  0.75960000  0.39960000  0.27070000  1
  H  H41  1  0.80290000  0.45200000  0.55610000  1
  H  H42  1  0.92460000  0.74610000  0.32310000  1
  H  H43  1  0.93300000  0.82940000  0.18060000  1
  H  H44  1  0.95770000  0.78790000  0.02580000  1
  H  H45  1  0.96280000  0.23370000  0.80260000  1
  H  H46  1  0.96450000  0.23390000  0.49840000  1
  H  H47  1  0.97410000  0.18400000  0.64800000  1
  C  C48  1  0.00760000  0.24230000  0.68450000  1
  C  C49  1  0.03100000  0.23170000  0.79380000  1
  C  C50  1  0.08430000  0.71460000  0.52410000  1
  C  C51  1  0.09680000  0.25770000  0.00610000  1
  C  C52  1  0.09740000  0.21073000  0.17200000  1
  C  C53  1  0.10480000  0.74647000  0.70050000  1
  C  C54  1  0.10940000  0.66070000  0.45679000  1
  C  C55  1  0.13350000  0.69070000  0.62693000  1
  C  C56  1  0.13700000  0.31460000  0.95020000  1
  C  C57  1  0.13910000  0.26998000  0.11051000  1
  C  C58  1  0.15470000  0.96970000  0.34715000  1
  C  C59  1  0.18100000  0.58380000  0.48990000  1
  C  C60  1  0.19440000  0.97432000  0.87260000  1
  C  C61  1  0.20650000  0.61470000  0.66080000  1
  C  C62  1  0.21730000  0.38320000  0.99720000  1
  C  C63  1  0.22050000  0.33820000  0.15797000  1
  C  C64  1  0.22910000  0.55960000  0.59170000  1
  C  C65  1  0.24080000  0.89502000  0.39846000  1
  C  C66  1  0.25920000  0.39502000  0.10154000  1
  C  C67  1  0.27090000  0.05960000  0.90830000  1
  C  C68  1  0.27950000  0.83820000  0.34203000  1
  C  C69  1  0.28270000  0.88320000  0.50280000  1
  C  C70  1  0.29350000  0.11470000  0.83920000  1
  C  C71  1  0.30560000  0.47432000  0.62740000  1
  C  C72  1  0.31900000  0.08380000  0.01010000  1
  C  C73  1  0.34530000  0.46970000  0.15285000  1
  C  C74  1  0.36090000  0.76998000  0.38949000  1
  C  C75  1  0.36300000  0.81460000  0.54980000  1
  C  C76  1  0.36650000  0.19070000  0.87307000  1
  C  C77  1  0.39060000  0.16070000  0.04321000  1
  C  C78  1  0.39520000  0.24647000  0.79950000  1
  C  C79  1  0.40260000  0.71073000  0.32800000  1
  C  C80  1  0.40320000  0.75770000  0.49390000  1
  C  C81  1  0.41570000  0.21460000  0.97590000  1
  C  C82  1  0.46900000  0.73170000  0.70620000  1
  C  C83  1  0.49240000  0.74230000  0.81550000  1
  C  C84  1  0.50760000  0.25770000  0.18450000  1
  C  C85  1  0.53100000  0.26830000  0.29380000  1
  C  C86  1  0.58430000  0.78540000  0.02410000  1
  C  C87  1  0.59680000  0.24230000  0.50610000  1
  C  C88  1  0.59740000  0.28927000  0.67200000  1
  C  C89  1  0.60480000  0.75353000  0.20050000  1
  C  C90  1  0.60940000  0.83930000  0.95679000  1
  C  C91  1  0.63350000  0.80930000  0.12693000  1
  C  C92  1  0.63700000  0.18540000  0.45020000  1
  C  C93  1  0.63910000  0.23002000  0.61051000  1
  C  C94  1  0.65470000  0.53030000  0.84715000  1
  C  C95  1  0.68100000  0.91620000  0.98990000  1
  C  C96  1  0.69440000  0.52568000  0.37260000  1
  C  C97  1  0.70650000  0.88530000  0.16080000  1
  C  C98  1  0.71730000  0.11680000  0.49720000  1
  C  C99  1  0.72050000  0.16180000  0.65797000  1
  C  C100  1  0.72910000  0.94040000  0.09170000  1
  C  C101  1  0.74080000  0.60498000  0.89846000  1
  C  C102  1  0.75920000  0.10498000  0.60154000  1
  C  C103  1  0.77090000  0.44040000  0.40830000  1
  C  C104  1  0.77950000  0.66180000  0.84203000  1
  C  C105  1  0.78270000  0.61680000  0.00280000  1
  C  C106  1  0.79350000  0.38530000  0.33920000  1
  C  C107  1  0.80560000  0.02568000  0.12740000  1
  C  C108  1  0.81900000  0.41620000  0.51010000  1
  C  C109  1  0.84530000  0.03030000  0.65285000  1
  C  C110  1  0.86090000  0.73002000  0.88949000  1
  C  C111  1  0.86300000  0.68540000  0.04980000  1
  C  C112  1  0.86650000  0.30930000  0.37307000  1
  C  C113  1  0.89060000  0.33930000  0.54321000  1
  C  C114  1  0.89520000  0.25353000  0.29950000  1
  C  C115  1  0.90260000  0.78927000  0.82800000  1
  C  C116  1  0.90320000  0.74230000  0.99390000  1
  C  C117  1  0.91570000  0.28540000  0.47590000  1
  C  C118  1  0.96900000  0.76830000  0.20620000  1
  C  C119  1  0.99240000  0.75770000  0.31550000  1
  O  O120  1  0.00069000  0.17322000  0.13210000  1
  O  O121  1  0.02617000  0.80635000  0.66446000  1
  O  O122  1  0.06609000  0.67792000  0.35431000  1
  O  O123  1  0.10117000  0.30962000  0.84720000  1
  O  O124  1  0.11359000  0.98206000  0.78784000  1
  O  O125  1  0.11408000  0.01922000  0.39550000  1
  O  O126  1  0.12226000  0.98406000  0.25405000  1
  O  O127  1  0.15567000  0.19417000  0.26324000  1
  O  O128  1  0.15734000  0.72904000  0.79210000  1
  O  O129  1  0.21731000  0.90234000  0.92940000  1
  O  O130  1  0.28269000  0.40234000  0.57060000  1
  O  O131  1  0.34266000  0.22904000  0.70790000  1
  O  O132  1  0.34433000  0.69417000  0.23676000  1
  O  O133  1  0.37774000  0.48406000  0.24595000  1
  O  O134  1  0.38592000  0.51922000  0.10450000  1
  O  O135  1  0.38641000  0.48206000  0.71216000  1
  O  O136  1  0.39883000  0.80962000  0.65280000  1
  O  O137  1  0.43391000  0.17792000  0.14569000  1
  O  O138  1  0.47383000  0.30635000  0.83554000  1
  O  O139  1  0.49931000  0.67322000  0.36790000  1
  O  O140  1  0.50069000  0.32678000  0.63210000  1
  O  O141  1  0.52617000  0.69365000  0.16446000  1
  O  O142  1  0.56609000  0.82208000  0.85431000  1
  O  O143  1  0.60117000  0.19038000  0.34720000  1
  O  O144  1  0.61359000  0.51794000  0.28784000  1
  O  O145  1  0.61408000  0.48078000  0.89550000  1
  O  O146  1  0.62226000  0.51594000  0.75405000  1
  O  O147  1  0.65567000  0.30583000  0.76324000  1
  O  O148  1  0.65734000  0.77096000  0.29210000  1
  O  O149  1  0.71731000  0.59766000  0.42940000  1
  O  O150  1  0.78269000  0.09766000  0.07060000  1
  O  O151  1  0.84266000  0.27096000  0.20790000  1
  O  O152  1  0.84433000  0.80583000  0.73676000  1
  O  O153  1  0.87774000  0.01594000  0.74595000  1
  O  O154  1  0.88592000  0.98078000  0.60450000  1
  O  O155  1  0.88641000  0.01794000  0.21216000  1
  O  O156  1  0.89883000  0.69038000  0.15280000  1
  O  O157  1  0.93391000  0.32208000  0.64569000  1
  O  O158  1  0.97383000  0.19365000  0.33554000  1
  O  O159  1  0.99931000  0.82678000  0.86790000  1
