# generated using pymatgen
data_Eu3H22C52N9O20
_symmetry_space_group_name_H-M   'P 1'
_cell_length_a   15.13210000
_cell_length_b   16.97620000
_cell_length_c   17.04130000
_cell_angle_alpha   110.92200000
_cell_angle_beta   93.25500000
_cell_angle_gamma   97.51100000
_symmetry_Int_Tables_number   1
_chemical_formula_structural   Eu3H22C52N9O20
_chemical_formula_sum   'Eu6 H44 C104 N18 O40'
_cell_volume   4028.56970817
_cell_formula_units_Z   2
loop_
 _symmetry_equiv_pos_site_id
 _symmetry_equiv_pos_as_xyz
  1  'x, y, z'
loop_
 _atom_site_type_symbol
 _atom_site_label
 _atom_site_symmetry_multiplicity
 _atom_site_fract_x
 _atom_site_fract_y
 _atom_site_fract_z
 _atom_site_occupancy
  Eu  Eu0  1  0.00793000  0.86027000  0.64410000  1
  Eu  Eu1  1  0.05239000  0.02966000  0.11919000  1
  Eu  Eu2  1  0.05785000  0.62127000  0.52860000  1
  Eu  Eu3  1  0.94215000  0.37873000  0.47140000  1
  Eu  Eu4  1  0.94761000  0.97034000  0.88081000  1
  Eu  Eu5  1  0.99207000  0.13973000  0.35590000  1
  H  H6  1  0.04960000  0.40670000  0.75090000  1
  H  H7  1  0.05170000  0.22900000  0.02280000  1
  H  H8  1  0.07930000  0.43820000  0.89160000  1
  H  H9  1  0.08060000  0.65860000  0.79170000  1
  H  H10  1  0.08220000  0.92160000  0.42060000  1
  H  H11  1  0.09310000  0.32320000  0.33230000  1
  H  H12  1  0.09420000  0.83520000  0.82170000  1
  H  H13  1  0.10310000  0.69290000  0.93830000  1
  H  H14  1  0.11070000  0.82070000  0.17160000  1
  H  H15  1  0.12340000  0.67600000  0.31590000  1
  H  H16  1  0.14200000  0.41450000  0.59380000  1
  H  H17  1  0.15440000  0.09560000  0.92010000  1
  H  H18  1  0.26230000  0.52420000  0.65450000  1
  H  H19  1  0.27310000  0.15580000  0.02820000  1
  H  H20  1  0.30730000  0.25450000  0.47360000  1
  H  H21  1  0.31290000  0.90970000  0.99280000  1
  H  H22  1  0.32120000  0.49550000  0.41350000  1
  H  H23  1  0.32460000  0.98070000  0.75760000  1
  H  H24  1  0.32820000  0.25270000  0.25580000  1
  H  H25  1  0.32970000  0.75580000  0.75200000  1
  H  H26  1  0.43120000  0.36220000  0.53810000  1
  H  H27  1  0.44340000  0.04110000  0.86350000  1
  H  H28  1  0.55660000  0.95890000  0.13650000  1
  H  H29  1  0.56880000  0.63780000  0.46190000  1
  H  H30  1  0.67030000  0.24420000  0.24800000  1
  H  H31  1  0.67180000  0.74730000  0.74420000  1
  H  H32  1  0.67540000  0.01930000  0.24240000  1
  H  H33  1  0.67880000  0.50450000  0.58650000  1
  H  H34  1  0.68710000  0.09030000  0.00720000  1
  H  H35  1  0.69270000  0.74550000  0.52640000  1
  H  H36  1  0.72690000  0.84420000  0.97180000  1
  H  H37  1  0.73770000  0.47580000  0.34550000  1
  H  H38  1  0.84560000  0.90440000  0.07990000  1
  H  H39  1  0.85800000  0.58550000  0.40620000  1
  H  H40  1  0.87660000  0.32400000  0.68410000  1
  H  H41  1  0.88930000  0.17930000  0.82840000  1
  H  H42  1  0.89690000  0.30710000  0.06170000  1
  H  H43  1  0.90580000  0.16480000  0.17830000  1
  H  H44  1  0.90690000  0.67680000  0.66770000  1
  H  H45  1  0.91780000  0.07840000  0.57940000  1
  H  H46  1  0.91940000  0.34140000  0.20830000  1
  H  H47  1  0.92070000  0.56180000  0.10840000  1
  H  H48  1  0.94830000  0.77100000  0.97720000  1
  H  H49  1  0.95040000  0.59330000  0.24910000  1
  C  C50  1  0.04070000  0.51450000  0.66710000  1
  C  C51  1  0.04580000  0.16970000  0.01300000  1
  C  C52  1  0.05670000  0.52940000  0.75680000  1
  C  C53  1  0.06000000  0.46470000  0.78850000  1
  C  C54  1  0.07730000  0.61390000  0.81320000  1
  C  C55  1  0.07770000  0.48370000  0.87180000  1
  C  C56  1  0.08060000  0.96490000  0.28730000  1
  C  C57  1  0.09210000  0.87470000  0.37270000  1
  C  C58  1  0.09320000  0.63500000  0.90050000  1
  C  C59  1  0.09360000  0.88320000  0.29530000  1
  C  C60  1  0.09420000  0.56820000  0.93110000  1
  C  C61  1  0.09720000  0.78890000  0.46460000  1
  C  C62  1  0.10470000  0.79870000  0.38180000  1
  C  C63  1  0.10740000  0.81460000  0.22470000  1
  C  C64  1  0.11300000  0.58650000  0.02430000  1
  C  C65  1  0.11600000  0.72880000  0.31100000  1
  C  C66  1  0.11630000  0.73790000  0.23240000  1
  C  C67  1  0.12080000  0.66120000  0.15480000  1
  C  C68  1  0.13250000  0.26170000  0.47180000  1
  C  C69  1  0.14850000  0.97670000  0.76570000  1
  C  C70  1  0.14880000  0.93980000  0.98310000  1
  C  C71  1  0.15200000  0.48450000  0.43890000  1
  C  C72  1  0.15590000  0.18510000  0.24030000  1
  C  C73  1  0.15600000  0.83550000  0.83520000  1
  C  C74  1  0.15630000  0.33640000  0.33440000  1
  C  C75  1  0.16180000  0.74320000  0.68420000  1
  C  C76  1  0.19680000  0.88190000  0.91660000  1
  C  C77  1  0.20040000  0.41790000  0.38370000  1
  C  C78  1  0.20060000  0.40490000  0.58010000  1
  C  C79  1  0.20380000  0.27450000  0.28830000  1
  C  C80  1  0.20550000  0.78910000  0.77250000  1
  C  C81  1  0.21180000  0.32580000  0.52280000  1
  C  C82  1  0.21290000  0.08300000  0.90950000  1
  C  C83  1  0.22690000  0.02650000  0.82910000  1
  C  C84  1  0.27170000  0.46970000  0.61750000  1
  C  C85  1  0.28360000  0.12040000  0.97340000  1
  C  C86  1  0.28540000  0.87910000  0.93660000  1
  C  C87  1  0.29120000  0.43900000  0.38220000  1
  C  C88  1  0.29540000  0.29490000  0.28790000  1
  C  C89  1  0.29570000  0.78750000  0.79390000  1
  C  C90  1  0.29830000  0.30960000  0.50930000  1
  C  C91  1  0.31370000  0.01490000  0.81280000  1
  C  C92  1  0.33570000  0.83210000  0.87590000  1
  C  C93  1  0.33890000  0.37690000  0.33430000  1
  C  C94  1  0.35710000  0.45390000  0.60000000  1
  C  C95  1  0.37030000  0.10540000  0.95630000  1
  C  C96  1  0.37200000  0.37330000  0.54750000  1
  C  C97  1  0.38460000  0.05190000  0.87530000  1
  C  C98  1  0.42990000  0.83140000  0.90110000  1
  C  C99  1  0.43350000  0.52400000  0.63670000  1
  C  C100  1  0.43630000  0.40300000  0.33530000  1
  C  C101  1  0.44420000  0.14080000  0.02490000  1
  C  C102  1  0.55580000  0.85920000  0.97510000  1
  C  C103  1  0.56370000  0.59700000  0.66470000  1
  C  C104  1  0.56650000  0.47600000  0.36330000  1
  C  C105  1  0.57010000  0.16860000  0.09890000  1
  C  C106  1  0.61540000  0.94810000  0.12470000  1
  C  C107  1  0.62800000  0.62670000  0.45250000  1
  C  C108  1  0.62970000  0.89460000  0.04370000  1
  C  C109  1  0.64290000  0.54610000  0.40000000  1
  C  C110  1  0.66110000  0.62310000  0.66570000  1
  C  C111  1  0.66430000  0.16790000  0.12410000  1
  C  C112  1  0.68630000  0.98510000  0.18720000  1
  C  C113  1  0.70170000  0.69040000  0.49070000  1
  C  C114  1  0.70430000  0.21250000  0.20610000  1
  C  C115  1  0.70460000  0.70510000  0.71210000  1
  C  C116  1  0.70880000  0.56100000  0.61780000  1
  C  C117  1  0.71460000  0.12090000  0.06340000  1
  C  C118  1  0.71640000  0.87960000  0.02660000  1
  C  C119  1  0.72830000  0.53030000  0.38250000  1
  C  C120  1  0.77310000  0.97350000  0.17090000  1
  C  C121  1  0.78710000  0.91700000  0.09050000  1
  C  C122  1  0.78820000  0.67420000  0.47720000  1
  C  C123  1  0.79450000  0.21090000  0.22750000  1
  C  C124  1  0.79620000  0.72550000  0.71170000  1
  C  C125  1  0.79940000  0.59510000  0.41990000  1
  C  C126  1  0.79960000  0.58210000  0.61630000  1
  C  C127  1  0.80320000  0.11810000  0.08340000  1
  C  C128  1  0.83820000  0.25680000  0.31580000  1
  C  C129  1  0.84370000  0.66360000  0.66560000  1
  C  C130  1  0.84400000  0.16450000  0.16480000  1
  C  C131  1  0.84410000  0.81490000  0.75970000  1
  C  C132  1  0.84800000  0.51550000  0.56110000  1
  C  C133  1  0.85120000  0.06020000  0.01690000  1
  C  C134  1  0.85150000  0.02330000  0.23430000  1
  C  C135  1  0.86750000  0.73830000  0.52820000  1
  C  C136  1  0.87920000  0.33880000  0.84520000  1
  C  C137  1  0.88370000  0.26210000  0.76760000  1
  C  C138  1  0.88400000  0.27120000  0.68900000  1
  C  C139  1  0.88700000  0.41350000  0.97570000  1
  C  C140  1  0.89260000  0.18540000  0.77530000  1
  C  C141  1  0.89530000  0.20130000  0.61820000  1
  C  C142  1  0.90280000  0.21110000  0.53540000  1
  C  C143  1  0.90580000  0.43180000  0.06890000  1
  C  C144  1  0.90640000  0.11680000  0.70470000  1
  C  C145  1  0.90680000  0.36500000  0.09950000  1
  C  C146  1  0.90790000  0.12530000  0.62730000  1
  C  C147  1  0.91940000  0.03510000  0.71270000  1
  C  C148  1  0.92230000  0.51630000  0.12820000  1
  C  C149  1  0.92270000  0.38610000  0.18680000  1
  C  C150  1  0.94000000  0.53530000  0.21150000  1
  C  C151  1  0.94330000  0.47060000  0.24320000  1
  C  C152  1  0.95420000  0.83030000  0.98700000  1
  C  C153  1  0.95930000  0.48550000  0.33290000  1
  N  N154  1  0.10330000  0.66530000  0.07650000  1
  N  N155  1  0.13500000  0.54160000  0.06400000  1
  N  N156  1  0.13760000  0.58910000  0.15110000  1
  N  N157  1  0.42460000  0.60140000  0.68850000  1
  N  N158  1  0.43480000  0.19710000  0.10060000  1
  N  N159  1  0.47390000  0.87810000  0.97870000  1
  N  N160  1  0.48040000  0.48070000  0.37970000  1
  N  N161  1  0.48510000  0.78740000  0.85180000  1
  N  N162  1  0.49300000  0.35160000  0.29560000  1
  N  N163  1  0.50700000  0.64840000  0.70440000  1
  N  N164  1  0.51490000  0.21260000  0.14820000  1
  N  N165  1  0.51960000  0.51930000  0.62030000  1
  N  N166  1  0.52610000  0.12190000  0.02130000  1
  N  N167  1  0.56520000  0.80290000  0.89940000  1
  N  N168  1  0.57540000  0.39860000  0.31150000  1
  N  N169  1  0.86240000  0.41090000  0.84890000  1
  N  N170  1  0.86500000  0.45840000  0.93600000  1
  N  N171  1  0.89670000  0.33470000  0.92350000  1
  O  O172  1  0.00060000  0.44000000  0.61720000  1
  O  O173  1  0.00890000  0.11760000  0.93960000  1
  O  O174  1  0.04300000  0.01510000  0.34660000  1
  O  O175  1  0.05650000  0.28690000  0.46680000  1
  O  O176  1  0.06870000  0.96960000  0.78970000  1
  O  O177  1  0.07010000  0.57420000  0.64500000  1
  O  O178  1  0.07010000  0.84940000  0.52150000  1
  O  O179  1  0.07390000  0.16560000  0.24950000  1
  O  O180  1  0.07480000  0.15000000  0.07270000  1
  O  O181  1  0.07920000  0.96450000  0.96130000  1
  O  O182  1  0.07930000  0.46280000  0.46450000  1
  O  O183  1  0.08140000  0.75240000  0.66490000  1
  O  O184  1  0.10340000  0.98070000  0.22440000  1
  O  O185  1  0.11870000  0.72410000  0.47580000  1
  O  O186  1  0.14160000  0.18610000  0.43140000  1
  O  O187  1  0.16000000  0.93850000  0.68990000  1
  O  O188  1  0.17940000  0.96180000  0.05900000  1
  O  O189  1  0.18590000  0.56280000  0.46050000  1
  O  O190  1  0.19640000  0.13170000  0.19140000  1
  O  O191  1  0.20140000  0.69570000  0.62940000  1
  O  O192  1  0.79860000  0.30430000  0.37060000  1
  O  O193  1  0.80360000  0.86830000  0.80860000  1
  O  O194  1  0.81410000  0.43720000  0.53950000  1
  O  O195  1  0.82060000  0.03820000  0.94100000  1
  O  O196  1  0.84000000  0.06150000  0.31010000  1
  O  O197  1  0.85840000  0.81390000  0.56860000  1
  O  O198  1  0.88130000  0.27590000  0.52420000  1
  O  O199  1  0.89660000  0.01930000  0.77560000  1
  O  O200  1  0.91860000  0.24760000  0.33510000  1
  O  O201  1  0.92070000  0.53720000  0.53550000  1
  O  O202  1  0.92080000  0.03550000  0.03870000  1
  O  O203  1  0.92520000  0.85000000  0.92730000  1
  O  O204  1  0.92610000  0.83440000  0.75050000  1
  O  O205  1  0.92990000  0.15060000  0.47850000  1
  O  O206  1  0.92990000  0.42580000  0.35500000  1
  O  O207  1  0.93130000  0.03040000  0.21030000  1
  O  O208  1  0.94350000  0.71310000  0.53320000  1
  O  O209  1  0.95700000  0.98490000  0.65340000  1
  O  O210  1  0.99110000  0.88240000  0.06040000  1
  O  O211  1  0.99940000  0.56000000  0.38280000  1
