# generated using pymatgen
data_La2U3H6(C5O4)6
_symmetry_space_group_name_H-M   'P 1'
_cell_length_a   11.00100000
_cell_length_b   11.56300000
_cell_length_c   13.43200000
_cell_angle_alpha   69.35800000
_cell_angle_beta   79.86900000
_cell_angle_gamma   61.86400000
_symmetry_Int_Tables_number   1
_chemical_formula_structural   La2U3H6(C5O4)6
_chemical_formula_sum   'La2 U3 H6 C30 O24'
_cell_volume   1409.88124834
_cell_formula_units_Z   1
loop_
 _symmetry_equiv_pos_site_id
 _symmetry_equiv_pos_as_xyz
  1  'x, y, z'
loop_
 _atom_site_type_symbol
 _atom_site_label
 _atom_site_symmetry_multiplicity
 _atom_site_fract_x
 _atom_site_fract_y
 _atom_site_fract_z
 _atom_site_occupancy
  La  La0  1  0.37562000  0.78720000  0.22479000  1
  La  La1  1  0.62438000  0.21280000  0.77521000  1
  U  U2  1  0.00000000  0.50000000  0.50000000  1
  U  U3  1  0.36670000  0.29875000  0.16623000  1
  U  U4  1  0.63330000  0.70125000  0.83377000  1
  H  H5  1  0.09880000  0.35980000  0.95190000  1
  H  H6  1  0.18590000  0.09700000  0.73340000  1
  H  H7  1  0.29620000  0.00190000  0.58140000  1
  H  H8  1  0.70380000  0.99810000  0.41860000  1
  H  H9  1  0.81410000  0.90300000  0.26660000  1
  H  H10  1  0.90120000  0.64020000  0.04810000  1
  C  C11  1  0.01060000  0.33660000  0.84540000  1
  C  C12  1  0.03610000  0.25650000  0.78000000  1
  C  C13  1  0.07680000  0.72400000  0.28280000  1
  C  C14  1  0.11810000  0.31030000  0.90490000  1
  C  C15  1  0.12370000  0.54730000  0.15030000  1
  C  C16  1  0.16940000  0.15330000  0.77440000  1
  C  C17  1  0.25120000  0.21400000  0.89670000  1
  C  C18  1  0.25750000  0.25590000  0.49450000  1
  C  C19  1  0.28030000  0.13260000  0.83030000  1
  C  C20  1  0.35540000  0.19970000  0.96220000  1
  C  C21  1  0.37840000  0.00130000  0.54900000  1
  C  C22  1  0.38330000  0.12500000  0.49760000  1
  C  C23  1  0.41950000  0.02810000  0.81040000  1
  C  C24  1  0.47520000  0.74630000  0.61480000  1
  C  C25  1  0.49170000  0.87600000  0.55430000  1
  C  C26  1  0.50830000  0.12400000  0.44570000  1
  C  C27  1  0.52480000  0.25370000  0.38520000  1
  C  C28  1  0.58050000  0.97190000  0.18960000  1
  C  C29  1  0.61670000  0.87500000  0.50240000  1
  C  C30  1  0.62160000  0.99870000  0.45100000  1
  C  C31  1  0.64460000  0.80030000  0.03780000  1
  C  C32  1  0.71970000  0.86740000  0.16970000  1
  C  C33  1  0.74250000  0.74410000  0.50550000  1
  C  C34  1  0.74880000  0.78600000  0.10330000  1
  C  C35  1  0.83060000  0.84670000  0.22560000  1
  C  C36  1  0.87630000  0.45270000  0.84970000  1
  C  C37  1  0.88190000  0.68970000  0.09510000  1
  C  C38  1  0.92320000  0.27600000  0.71720000  1
  C  C39  1  0.96390000  0.74350000  0.22000000  1
  C  C40  1  0.98940000  0.66340000  0.15460000  1
  O  O41  1  0.09620000  0.64500000  0.37720000  1
  O  O42  1  0.13780000  0.79670000  0.23910000  1
  O  O43  1  0.14080000  0.47290000  0.09430000  1
  O  O44  1  0.14410000  0.25030000  0.52360000  1
  O  O45  1  0.22390000  0.51660000  0.20490000  1
  O  O46  1  0.26180000  0.36910000  0.46860000  1
  O  O47  1  0.30950000  0.21720000  0.05330000  1
  O  O48  1  0.42530000  0.70160000  0.57030000  1
  O  O49  1  0.42970000  0.90850000  0.82830000  1
  O  O50  1  0.47450000  0.17480000  0.93290000  1
  O  O51  1  0.48310000  0.94160000  0.22350000  1
  O  O52  1  0.49180000  0.30840000  0.28640000  1
  O  O53  1  0.50820000  0.69160000  0.71360000  1
  O  O54  1  0.51690000  0.05840000  0.77650000  1
  O  O55  1  0.52550000  0.82520000  0.06710000  1
  O  O56  1  0.57030000  0.09150000  0.17170000  1
  O  O57  1  0.57470000  0.29840000  0.42970000  1
  O  O58  1  0.69050000  0.78280000  0.94670000  1
  O  O59  1  0.73820000  0.63090000  0.53140000  1
  O  O60  1  0.77610000  0.48340000  0.79510000  1
  O  O61  1  0.85590000  0.74970000  0.47640000  1
  O  O62  1  0.85920000  0.52710000  0.90570000  1
  O  O63  1  0.86220000  0.20330000  0.76090000  1
  O  O64  1  0.90380000  0.35500000  0.62280000  1
