# generated using pymatgen
data_MgZnH12(C9O4)2
_symmetry_space_group_name_H-M   'P 1'
_cell_length_a   13.79090000
_cell_length_b   16.28790000
_cell_length_c   22.01700000
_cell_angle_alpha   90.00000000
_cell_angle_beta   90.00000000
_cell_angle_gamma   90.00000000
_symmetry_Int_Tables_number   1
_chemical_formula_structural   MgZnH12(C9O4)2
_chemical_formula_sum   'Mg8 Zn8 H96 C144 O64'
_cell_volume   4945.56422402
_cell_formula_units_Z   8
loop_
 _symmetry_equiv_pos_site_id
 _symmetry_equiv_pos_as_xyz
  1  'x, y, z'
loop_
 _atom_site_type_symbol
 _atom_site_label
 _atom_site_symmetry_multiplicity
 _atom_site_fract_x
 _atom_site_fract_y
 _atom_site_fract_z
 _atom_site_occupancy
  Mg  Mg0  1  0.22210000  0.55091000  0.75915000  1
  Mg  Mg1  1  0.22210000  0.94909000  0.75915000  1
  Mg  Mg2  1  0.27790000  0.55091000  0.25915000  1
  Mg  Mg3  1  0.27790000  0.94909000  0.25915000  1
  Mg  Mg4  1  0.72210000  0.05091000  0.74085000  1
  Mg  Mg5  1  0.72210000  0.44909000  0.74085000  1
  Mg  Mg6  1  0.77790000  0.05091000  0.24085000  1
  Mg  Mg7  1  0.77790000  0.44909000  0.24085000  1
  Zn  Zn8  1  0.02021000  0.50209000  0.33117000  1
  Zn  Zn9  1  0.02021000  0.99791000  0.33117000  1
  Zn  Zn10  1  0.47979000  0.50209000  0.83117000  1
  Zn  Zn11  1  0.47979000  0.99791000  0.83117000  1
  Zn  Zn12  1  0.52021000  0.00209000  0.16883000  1
  Zn  Zn13  1  0.52021000  0.49791000  0.16883000  1
  Zn  Zn14  1  0.97979000  0.00209000  0.66883000  1
  Zn  Zn15  1  0.97979000  0.49791000  0.66883000  1
  H  H16  1  0.00218000  0.13450000  0.92199000  1
  H  H17  1  0.00515000  0.66489000  0.06438000  1
  H  H18  1  0.00620000  0.81911000  0.04369000  1
  H  H19  1  0.00832000  0.16650000  0.00308000  1
  H  H20  1  0.01247000  0.39652000  0.92159000  1
  H  H21  1  0.01763000  0.24972000  0.72112000  1
  H  H22  1  0.03856000  0.42468000  0.00189000  1
  H  H23  1  0.03962000  0.05932000  0.98120000  1
  H  H24  1  0.06864000  0.25040000  0.28900000  1
  H  H25  1  0.10705000  0.58444000  0.92097000  1
  H  H26  1  0.10705000  0.91556000  0.92097000  1
  H  H27  1  0.11363000  0.28541000  0.60998000  1
  H  H28  1  0.11382000  0.51897000  0.50132000  1
  H  H29  1  0.11382000  0.98103000  0.50132000  1
  H  H30  1  0.14078000  0.58260000  0.11746000  1
  H  H31  1  0.14078000  0.91740000  0.11746000  1
  H  H32  1  0.16180000  0.18407000  0.58511000  1
  H  H33  1  0.17861000  0.11591000  0.85997000  1
  H  H34  1  0.17861000  0.38409000  0.85997000  1
  H  H35  1  0.18501000  0.28393000  0.41498000  1
  H  H36  1  0.20277000  0.28205000  0.96196000  1
  H  H37  1  0.21770000  0.28052000  0.55625000  1
  H  H38  1  0.23953000  0.18402000  0.43780000  1
  H  H39  1  0.24199000  0.11662000  0.15517000  1
  H  H40  1  0.24199000  0.38338000  0.15517000  1
  H  H41  1  0.25801000  0.11662000  0.65517000  1
  H  H42  1  0.25801000  0.38338000  0.65517000  1
  H  H43  1  0.26047000  0.18402000  0.93780000  1
  H  H44  1  0.28230000  0.28052000  0.05625000  1
  H  H45  1  0.29723000  0.28205000  0.46196000  1
  H  H46  1  0.31499000  0.28393000  0.91498000  1
  H  H47  1  0.32139000  0.11591000  0.35997000  1
  H  H48  1  0.32139000  0.38409000  0.35997000  1
  H  H49  1  0.33820000  0.18407000  0.08511000  1
  H  H50  1  0.35922000  0.58260000  0.61746000  1
  H  H51  1  0.35922000  0.91740000  0.61746000  1
  H  H52  1  0.38618000  0.51897000  0.00132000  1
  H  H53  1  0.38618000  0.98103000  0.00132000  1
  H  H54  1  0.38637000  0.28541000  0.10998000  1
  H  H55  1  0.39295000  0.58444000  0.42097000  1
  H  H56  1  0.39295000  0.91556000  0.42097000  1
  H  H57  1  0.43136000  0.25040000  0.78900000  1
  H  H58  1  0.46038000  0.05932000  0.48120000  1
  H  H59  1  0.46144000  0.42468000  0.50189000  1
  H  H60  1  0.48237000  0.24972000  0.22112000  1
  H  H61  1  0.48753000  0.39652000  0.42159000  1
  H  H62  1  0.49168000  0.16650000  0.50308000  1
  H  H63  1  0.49380000  0.81911000  0.54369000  1
  H  H64  1  0.49485000  0.66489000  0.56438000  1
  H  H65  1  0.49782000  0.13450000  0.42199000  1
  H  H66  1  0.50091000  0.31848000  0.48279000  1
  H  H67  1  0.51763000  0.75028000  0.77888000  1
  H  H68  1  0.52094000  0.63673000  0.48408000  1
  H  H69  1  0.52509000  0.92628000  0.56556000  1
  H  H70  1  0.53123000  0.89429000  0.48448000  1
  H  H71  1  0.53433000  0.55869000  0.54528000  1
  H  H72  1  0.56864000  0.74960000  0.21100000  1
  H  H73  1  0.60705000  0.08444000  0.57903000  1
  H  H74  1  0.60705000  0.41556000  0.57903000  1
  H  H75  1  0.61105000  0.78052000  0.88869000  1
  H  H76  1  0.61382000  0.01897000  0.99868000  1
  H  H77  1  0.61382000  0.48103000  0.99868000  1
  H  H78  1  0.64078000  0.08260000  0.38254000  1
  H  H79  1  0.64078000  0.41740000  0.38254000  1
  H  H80  1  0.66695000  0.68407000  0.91755000  1
  H  H81  1  0.67861000  0.61591000  0.64003000  1
  H  H82  1  0.67861000  0.88409000  0.64003000  1
  H  H83  1  0.68395000  0.78205000  0.08546000  1
  H  H84  1  0.70384000  0.78393000  0.53848000  1
  H  H85  1  0.71513000  0.78541000  0.94242000  1
  H  H86  1  0.74165000  0.68402000  0.06131000  1
  H  H87  1  0.74199000  0.61662000  0.34483000  1
  H  H88  1  0.74199000  0.88338000  0.34483000  1
  H  H89  1  0.75801000  0.61662000  0.84483000  1
  H  H90  1  0.75801000  0.88338000  0.84483000  1
  H  H91  1  0.75835000  0.68402000  0.56131000  1
  H  H92  1  0.78487000  0.78541000  0.44242000  1
  H  H93  1  0.79616000  0.78393000  0.03848000  1
  H  H94  1  0.81605000  0.78205000  0.58546000  1
  H  H95  1  0.82139000  0.61591000  0.14003000  1
  H  H96  1  0.82139000  0.88409000  0.14003000  1
  H  H97  1  0.83305000  0.68407000  0.41755000  1
  H  H98  1  0.85922000  0.08260000  0.88254000  1
  H  H99  1  0.85922000  0.41740000  0.88254000  1
  H  H100  1  0.88618000  0.01897000  0.49868000  1
  H  H101  1  0.88618000  0.48103000  0.49868000  1
  H  H102  1  0.88895000  0.78052000  0.38869000  1
  H  H103  1  0.89295000  0.08444000  0.07903000  1
  H  H104  1  0.89295000  0.41556000  0.07903000  1
  H  H105  1  0.93136000  0.74960000  0.71100000  1
  H  H106  1  0.96567000  0.55869000  0.04528000  1
  H  H107  1  0.96877000  0.89429000  0.98448000  1
  H  H108  1  0.97491000  0.92628000  0.06556000  1
  H  H109  1  0.97906000  0.63673000  0.98408000  1
  H  H110  1  0.98237000  0.75028000  0.27888000  1
  H  H111  1  0.99909000  0.31848000  0.98279000  1
  C  C112  1  0.00960000  0.61380000  0.02910000  1
  C  C113  1  0.00960000  0.88620000  0.02910000  1
  C  C114  1  0.06710000  0.25000000  0.76260000  1
  C  C115  1  0.07230000  0.09730000  0.75640000  1
  C  C116  1  0.07230000  0.40270000  0.75640000  1
  C  C117  1  0.09670000  0.17680000  0.78742000  1
  C  C118  1  0.09670000  0.32320000  0.78742000  1
  C  C119  1  0.11640000  0.58820000  0.02040000  1
  C  C120  1  0.11640000  0.91180000  0.02040000  1
  C  C121  1  0.12190000  0.25000000  0.24940000  1
  C  C122  1  0.12530000  0.09750000  0.25445000  1
  C  C123  1  0.12530000  0.40250000  0.25445000  1
  C  C124  1  0.15420000  0.17660000  0.83920000  1
  C  C125  1  0.15420000  0.32340000  0.83920000  1
  C  C126  1  0.15460000  0.57540000  0.96280000  1
  C  C127  1  0.15460000  0.92460000  0.96280000  1
  C  C128  1  0.15480000  0.17610000  0.22494000  1
  C  C129  1  0.15480000  0.32390000  0.22494000  1
  C  C130  1  0.16790000  0.53980000  0.61940000  1
  C  C131  1  0.16790000  0.96020000  0.61940000  1
  C  C132  1  0.17350000  0.57440000  0.07030000  1
  C  C133  1  0.17350000  0.92560000  0.07030000  1
  C  C134  1  0.18190000  0.25000000  0.59710000  1
  C  C135  1  0.18200000  0.25000000  0.86570000  1
  C  C136  1  0.19250000  0.53910000  0.50681000  1
  C  C137  1  0.19250000  0.96090000  0.50681000  1
  C  C138  1  0.20660000  0.54250000  0.39390000  1
  C  C139  1  0.20660000  0.95750000  0.39390000  1
  C  C140  1  0.21610000  0.17690000  0.17590000  1
  C  C141  1  0.21610000  0.32310000  0.17590000  1
  C  C142  1  0.23070000  0.55090000  0.56415000  1
  C  C143  1  0.23070000  0.94910000  0.56415000  1
  C  C144  1  0.24410000  0.25000000  0.92390000  1
  C  C145  1  0.24850000  0.25000000  0.15000000  1
  C  C146  1  0.24850000  0.55140000  0.45610000  1
  C  C147  1  0.24850000  0.94860000  0.45610000  1
  C  C148  1  0.25150000  0.25000000  0.65000000  1
  C  C149  1  0.25150000  0.55140000  0.95610000  1
  C  C150  1  0.25150000  0.94860000  0.95610000  1
  C  C151  1  0.25590000  0.25000000  0.42390000  1
  C  C152  1  0.26930000  0.55090000  0.06415000  1
  C  C153  1  0.26930000  0.94910000  0.06415000  1
  C  C154  1  0.28390000  0.17690000  0.67590000  1
  C  C155  1  0.28390000  0.32310000  0.67590000  1
  C  C156  1  0.29340000  0.54250000  0.89390000  1
  C  C157  1  0.29340000  0.95750000  0.89390000  1
  C  C158  1  0.30750000  0.53910000  0.00681000  1
  C  C159  1  0.30750000  0.96090000  0.00681000  1
  C  C160  1  0.31800000  0.25000000  0.36570000  1
  C  C161  1  0.31810000  0.25000000  0.09710000  1
  C  C162  1  0.32650000  0.57440000  0.57030000  1
  C  C163  1  0.32650000  0.92560000  0.57030000  1
  C  C164  1  0.33210000  0.53980000  0.11940000  1
  C  C165  1  0.33210000  0.96020000  0.11940000  1
  C  C166  1  0.34520000  0.17610000  0.72494000  1
  C  C167  1  0.34520000  0.32390000  0.72494000  1
  C  C168  1  0.34540000  0.57540000  0.46280000  1
  C  C169  1  0.34540000  0.92460000  0.46280000  1
  C  C170  1  0.34580000  0.17660000  0.33920000  1
  C  C171  1  0.34580000  0.32340000  0.33920000  1
  C  C172  1  0.37470000  0.09750000  0.75445000  1
  C  C173  1  0.37470000  0.40250000  0.75445000  1
  C  C174  1  0.37810000  0.25000000  0.74940000  1
  C  C175  1  0.38360000  0.58820000  0.52040000  1
  C  C176  1  0.38360000  0.91180000  0.52040000  1
  C  C177  1  0.40330000  0.17680000  0.28742000  1
  C  C178  1  0.40330000  0.32320000  0.28742000  1
  C  C179  1  0.42770000  0.09730000  0.25640000  1
  C  C180  1  0.42770000  0.40270000  0.25640000  1
  C  C181  1  0.43290000  0.25000000  0.26260000  1
  C  C182  1  0.49040000  0.61380000  0.52910000  1
  C  C183  1  0.49040000  0.88620000  0.52910000  1
  C  C184  1  0.50960000  0.11380000  0.47090000  1
  C  C185  1  0.50960000  0.38620000  0.47090000  1
  C  C186  1  0.56710000  0.75000000  0.73740000  1
  C  C187  1  0.57230000  0.59730000  0.74360000  1
  C  C188  1  0.57230000  0.90270000  0.74360000  1
  C  C189  1  0.59670000  0.67680000  0.71258000  1
  C  C190  1  0.59670000  0.82320000  0.71258000  1
  C  C191  1  0.61640000  0.08820000  0.47960000  1
  C  C192  1  0.61640000  0.41180000  0.47960000  1
  C  C193  1  0.62190000  0.75000000  0.25060000  1
  C  C194  1  0.62530000  0.59750000  0.24555000  1
  C  C195  1  0.62530000  0.90250000  0.24555000  1
  C  C196  1  0.65420000  0.67660000  0.66080000  1
  C  C197  1  0.65420000  0.82340000  0.66080000  1
  C  C198  1  0.65460000  0.07540000  0.53720000  1
  C  C199  1  0.65460000  0.42460000  0.53720000  1
  C  C200  1  0.65480000  0.67610000  0.27506000  1
  C  C201  1  0.65480000  0.82390000  0.27506000  1
  C  C202  1  0.66790000  0.03980000  0.88060000  1
  C  C203  1  0.66790000  0.46020000  0.88060000  1
  C  C204  1  0.67350000  0.07440000  0.42970000  1
  C  C205  1  0.67350000  0.42560000  0.42970000  1
  C  C206  1  0.68190000  0.75000000  0.90290000  1
  C  C207  1  0.68200000  0.75000000  0.63430000  1
  C  C208  1  0.69250000  0.03910000  0.99319000  1
  C  C209  1  0.69250000  0.46090000  0.99319000  1
  C  C210  1  0.70660000  0.04250000  0.10610000  1
  C  C211  1  0.70660000  0.45750000  0.10610000  1
  C  C212  1  0.71610000  0.67690000  0.32410000  1
  C  C213  1  0.71610000  0.82310000  0.32410000  1
  C  C214  1  0.73070000  0.05090000  0.93585000  1
  C  C215  1  0.73070000  0.44910000  0.93585000  1
  C  C216  1  0.74410000  0.75000000  0.57610000  1
  C  C217  1  0.74850000  0.05140000  0.04390000  1
  C  C218  1  0.74850000  0.44860000  0.04390000  1
  C  C219  1  0.74850000  0.75000000  0.35000000  1
  C  C220  1  0.75150000  0.05140000  0.54390000  1
  C  C221  1  0.75150000  0.44860000  0.54390000  1
  C  C222  1  0.75150000  0.75000000  0.85000000  1
  C  C223  1  0.75590000  0.75000000  0.07610000  1
  C  C224  1  0.76930000  0.05090000  0.43585000  1
  C  C225  1  0.76930000  0.44910000  0.43585000  1
  C  C226  1  0.78390000  0.67690000  0.82410000  1
  C  C227  1  0.78390000  0.82310000  0.82410000  1
  C  C228  1  0.79340000  0.04250000  0.60610000  1
  C  C229  1  0.79340000  0.45750000  0.60610000  1
  C  C230  1  0.80750000  0.03910000  0.49319000  1
  C  C231  1  0.80750000  0.46090000  0.49319000  1
  C  C232  1  0.81800000  0.75000000  0.13430000  1
  C  C233  1  0.81810000  0.75000000  0.40290000  1
  C  C234  1  0.82650000  0.07440000  0.92970000  1
  C  C235  1  0.82650000  0.42560000  0.92970000  1
  C  C236  1  0.83210000  0.03980000  0.38060000  1
  C  C237  1  0.83210000  0.46020000  0.38060000  1
  C  C238  1  0.84520000  0.67610000  0.77506000  1
  C  C239  1  0.84520000  0.82390000  0.77506000  1
  C  C240  1  0.84540000  0.07540000  0.03720000  1
  C  C241  1  0.84540000  0.42460000  0.03720000  1
  C  C242  1  0.84580000  0.67660000  0.16080000  1
  C  C243  1  0.84580000  0.82340000  0.16080000  1
  C  C244  1  0.87470000  0.59750000  0.74555000  1
  C  C245  1  0.87470000  0.90250000  0.74555000  1
  C  C246  1  0.87810000  0.75000000  0.75060000  1
  C  C247  1  0.88360000  0.08820000  0.97960000  1
  C  C248  1  0.88360000  0.41180000  0.97960000  1
  C  C249  1  0.90330000  0.67680000  0.21258000  1
  C  C250  1  0.90330000  0.82320000  0.21258000  1
  C  C251  1  0.92770000  0.59730000  0.24360000  1
  C  C252  1  0.92770000  0.90270000  0.24360000  1
  C  C253  1  0.93290000  0.75000000  0.23740000  1
  C  C254  1  0.99040000  0.11380000  0.97090000  1
  C  C255  1  0.99040000  0.38620000  0.97090000  1
  O  O256  1  0.00410000  0.09990000  0.71678000  1
  O  O257  1  0.00410000  0.40010000  0.71678000  1
  O  O258  1  0.05000000  0.09998000  0.28827000  1
  O  O259  1  0.05000000  0.40002000  0.28827000  1
  O  O260  1  0.08230000  0.51450000  0.61041000  1
  O  O261  1  0.08230000  0.98550000  0.61041000  1
  O  O262  1  0.11470000  0.03340000  0.76944000  1
  O  O263  1  0.11470000  0.46660000  0.76944000  1
  O  O264  1  0.11690000  0.52580000  0.39226000  1
  O  O265  1  0.11690000  0.97420000  0.39226000  1
  O  O266  1  0.17200000  0.03370000  0.24563000  1
  O  O267  1  0.17200000  0.46630000  0.24563000  1
  O  O268  1  0.20060000  0.55730000  0.67012000  1
  O  O269  1  0.20060000  0.94270000  0.67012000  1
  O  O270  1  0.24200000  0.55250000  0.84946000  1
  O  O271  1  0.24200000  0.94750000  0.84946000  1
  O  O272  1  0.25800000  0.55250000  0.34946000  1
  O  O273  1  0.25800000  0.94750000  0.34946000  1
  O  O274  1  0.29940000  0.55730000  0.17012000  1
  O  O275  1  0.29940000  0.94270000  0.17012000  1
  O  O276  1  0.32800000  0.03370000  0.74563000  1
  O  O277  1  0.32800000  0.46630000  0.74563000  1
  O  O278  1  0.38310000  0.52580000  0.89226000  1
  O  O279  1  0.38310000  0.97420000  0.89226000  1
  O  O280  1  0.38530000  0.03340000  0.26944000  1
  O  O281  1  0.38530000  0.46660000  0.26944000  1
  O  O282  1  0.41770000  0.51450000  0.11041000  1
  O  O283  1  0.41770000  0.98550000  0.11041000  1
  O  O284  1  0.45000000  0.09998000  0.78827000  1
  O  O285  1  0.45000000  0.40002000  0.78827000  1
  O  O286  1  0.49590000  0.09990000  0.21678000  1
  O  O287  1  0.49590000  0.40010000  0.21678000  1
  O  O288  1  0.50410000  0.59990000  0.78322000  1
  O  O289  1  0.50410000  0.90010000  0.78322000  1
  O  O290  1  0.55000000  0.59998000  0.21173000  1
  O  O291  1  0.55000000  0.90002000  0.21173000  1
  O  O292  1  0.58230000  0.01450000  0.88959000  1
  O  O293  1  0.58230000  0.48550000  0.88959000  1
  O  O294  1  0.61470000  0.53340000  0.73056000  1
  O  O295  1  0.61470000  0.96660000  0.73056000  1
  O  O296  1  0.61690000  0.02580000  0.10774000  1
  O  O297  1  0.61690000  0.47420000  0.10774000  1
  O  O298  1  0.67200000  0.53370000  0.25437000  1
  O  O299  1  0.67200000  0.96630000  0.25437000  1
  O  O300  1  0.70060000  0.05730000  0.82988000  1
  O  O301  1  0.70060000  0.44270000  0.82988000  1
  O  O302  1  0.74200000  0.05250000  0.65054000  1
  O  O303  1  0.74200000  0.44750000  0.65054000  1
  O  O304  1  0.75800000  0.05250000  0.15054000  1
  O  O305  1  0.75800000  0.44750000  0.15054000  1
  O  O306  1  0.79940000  0.05730000  0.32988000  1
  O  O307  1  0.79940000  0.44270000  0.32988000  1
  O  O308  1  0.82800000  0.53370000  0.75437000  1
  O  O309  1  0.82800000  0.96630000  0.75437000  1
  O  O310  1  0.88310000  0.02580000  0.60774000  1
  O  O311  1  0.88310000  0.47420000  0.60774000  1
  O  O312  1  0.88530000  0.53340000  0.23056000  1
  O  O313  1  0.88530000  0.96660000  0.23056000  1
  O  O314  1  0.91770000  0.01450000  0.38959000  1
  O  O315  1  0.91770000  0.48550000  0.38959000  1
  O  O316  1  0.95000000  0.59998000  0.71173000  1
  O  O317  1  0.95000000  0.90002000  0.71173000  1
  O  O318  1  0.99590000  0.59990000  0.28322000  1
  O  O319  1  0.99590000  0.90010000  0.28322000  1
