# generated using pymatgen
data_ZnH7C14NO4
_symmetry_space_group_name_H-M   'P 1'
_cell_length_a   9.86900000
_cell_length_b   11.08200000
_cell_length_c   19.78500000
_cell_angle_alpha   90.00000000
_cell_angle_beta   90.00000000
_cell_angle_gamma   111.05900000
_symmetry_Int_Tables_number   1
_chemical_formula_structural   ZnH7C14NO4
_chemical_formula_sum   'Zn4 H28 C56 N4 O16'
_cell_volume   2019.32933394
_cell_formula_units_Z   4
loop_
 _symmetry_equiv_pos_site_id
 _symmetry_equiv_pos_as_xyz
  1  'x, y, z'
loop_
 _atom_site_type_symbol
 _atom_site_label
 _atom_site_symmetry_multiplicity
 _atom_site_fract_x
 _atom_site_fract_y
 _atom_site_fract_z
 _atom_site_occupancy
  Zn  Zn0  1  0.16319000  0.13319000  0.68471000  1
  Zn  Zn1  1  0.33681000  0.36681000  0.18471000  1
  Zn  Zn2  1  0.66319000  0.63319000  0.81529000  1
  Zn  Zn3  1  0.83681000  0.86681000  0.31529000  1
  H  H4  1  0.06380000  0.12720000  0.18250000  1
  H  H5  1  0.07870000  0.02080000  0.89260000  1
  H  H6  1  0.13540000  0.82060000  0.53660000  1
  H  H7  1  0.14510000  0.22210000  0.54480000  1
  H  H8  1  0.16620000  0.67910000  0.44520000  1
  H  H9  1  0.19230000  0.53580000  0.35410000  1
  H  H10  1  0.21500000  0.14010000  0.96450000  1
  H  H11  1  0.28500000  0.35990000  0.46450000  1
  H  H12  1  0.30770000  0.96420000  0.85410000  1
  H  H13  1  0.33380000  0.82090000  0.94520000  1
  H  H14  1  0.35490000  0.27790000  0.04480000  1
  H  H15  1  0.36460000  0.67940000  0.03660000  1
  H  H16  1  0.42130000  0.47920000  0.39260000  1
  H  H17  1  0.43620000  0.37280000  0.68250000  1
  H  H18  1  0.56380000  0.62720000  0.31750000  1
  H  H19  1  0.57870000  0.52080000  0.60740000  1
  H  H20  1  0.63540000  0.32060000  0.96340000  1
  H  H21  1  0.64510000  0.72210000  0.95520000  1
  H  H22  1  0.66620000  0.17910000  0.05480000  1
  H  H23  1  0.69230000  0.03580000  0.14590000  1
  H  H24  1  0.71500000  0.64010000  0.53550000  1
  H  H25  1  0.78500000  0.85990000  0.03550000  1
  H  H26  1  0.80770000  0.46420000  0.64590000  1
  H  H27  1  0.83380000  0.32090000  0.55480000  1
  H  H28  1  0.85490000  0.77790000  0.45520000  1
  H  H29  1  0.86460000  0.17940000  0.46340000  1
  H  H30  1  0.92130000  0.97920000  0.10740000  1
  H  H31  1  0.93620000  0.87280000  0.81750000  1
  C  C32  1  0.00750000  0.76510000  0.61698000  1
  C  C33  1  0.00780000  0.04140000  0.09267000  1
  C  C34  1  0.03680000  0.62440000  0.52799000  1
  C  C35  1  0.04720000  0.04450000  0.02567000  1
  C  C36  1  0.05480000  0.89640000  0.64896000  1
  C  C37  1  0.06430000  0.48520000  0.43854000  1
  C  C38  1  0.06960000  0.74860000  0.55801000  1
  C  C39  1  0.09530000  0.12950000  0.13803000  1
  C  C40  1  0.09580000  0.34530000  0.34945000  1
  C  C41  1  0.10000000  0.60780000  0.46692000  1
  C  C42  1  0.12740000  0.46480000  0.37658000  1
  C  C43  1  0.17770000  0.33550000  0.28702000  1
  C  C44  1  0.18130000  0.13520000  0.00863000  1
  C  C45  1  0.23520000  0.28160000  0.55734000  1
  C  C46  1  0.26480000  0.21840000  0.05734000  1
  C  C47  1  0.31870000  0.36480000  0.50863000  1
  C  C48  1  0.32230000  0.16450000  0.78702000  1
  C  C49  1  0.37260000  0.03520000  0.87658000  1
  C  C50  1  0.40000000  0.89220000  0.96692000  1
  C  C51  1  0.40420000  0.15470000  0.84945000  1
  C  C52  1  0.40470000  0.37050000  0.63803000  1
  C  C53  1  0.43040000  0.75140000  0.05801000  1
  C  C54  1  0.43570000  0.01480000  0.93854000  1
  C  C55  1  0.44520000  0.60360000  0.14896000  1
  C  C56  1  0.45280000  0.45550000  0.52567000  1
  C  C57  1  0.46320000  0.87560000  0.02799000  1
  C  C58  1  0.49220000  0.45860000  0.59267000  1
  C  C59  1  0.49250000  0.73490000  0.11698000  1
  C  C60  1  0.50750000  0.26510000  0.88302000  1
  C  C61  1  0.50780000  0.54140000  0.40733000  1
  C  C62  1  0.53680000  0.12440000  0.97201000  1
  C  C63  1  0.54720000  0.54450000  0.47433000  1
  C  C64  1  0.55480000  0.39640000  0.85104000  1
  C  C65  1  0.56430000  0.98520000  0.06146000  1
  C  C66  1  0.56960000  0.24860000  0.94199000  1
  C  C67  1  0.59530000  0.62950000  0.36197000  1
  C  C68  1  0.59580000  0.84530000  0.15055000  1
  C  C69  1  0.60000000  0.10780000  0.03308000  1
  C  C70  1  0.62740000  0.96480000  0.12342000  1
  C  C71  1  0.67770000  0.83550000  0.21298000  1
  C  C72  1  0.68130000  0.63520000  0.49137000  1
  C  C73  1  0.73520000  0.78160000  0.94266000  1
  C  C74  1  0.76480000  0.71840000  0.44266000  1
  C  C75  1  0.81870000  0.86480000  0.99137000  1
  C  C76  1  0.82230000  0.66450000  0.71298000  1
  C  C77  1  0.87260000  0.53520000  0.62342000  1
  C  C78  1  0.90000000  0.39220000  0.53308000  1
  C  C79  1  0.90420000  0.65470000  0.65055000  1
  C  C80  1  0.90470000  0.87050000  0.86197000  1
  C  C81  1  0.93040000  0.25140000  0.44199000  1
  C  C82  1  0.93570000  0.51480000  0.56146000  1
  C  C83  1  0.94520000  0.10360000  0.35104000  1
  C  C84  1  0.95280000  0.95550000  0.97433000  1
  C  C85  1  0.96320000  0.37560000  0.47201000  1
  C  C86  1  0.99220000  0.95860000  0.90733000  1
  C  C87  1  0.99250000  0.23490000  0.38302000  1
  N  N88  1  0.22240000  0.21740000  0.12125000  1
  N  N89  1  0.27760000  0.28260000  0.62125000  1
  N  N90  1  0.72240000  0.71740000  0.37875000  1
  N  N91  1  0.77760000  0.78260000  0.87875000  1
  O  O92  1  0.04040000  0.90640000  0.71104000  1
  O  O93  1  0.11410000  0.99430000  0.61125000  1
  O  O94  1  0.15740000  0.38950000  0.23380000  1
  O  O95  1  0.22920000  0.21570000  0.79069000  1
  O  O96  1  0.27080000  0.28430000  0.29069000  1
  O  O97  1  0.34260000  0.11050000  0.73380000  1
  O  O98  1  0.38590000  0.50570000  0.11125000  1
  O  O99  1  0.45960000  0.59360000  0.21104000  1
  O  O100  1  0.54040000  0.40640000  0.78896000  1
  O  O101  1  0.61410000  0.49430000  0.88875000  1
  O  O102  1  0.65740000  0.88950000  0.26620000  1
  O  O103  1  0.72920000  0.71570000  0.70931000  1
  O  O104  1  0.77080000  0.78430000  0.20931000  1
  O  O105  1  0.84260000  0.61050000  0.76620000  1
  O  O106  1  0.88590000  0.00570000  0.38875000  1
  O  O107  1  0.95960000  0.09360000  0.28896000  1
