# generated using pymatgen
data_AgH6(CN2)3
_symmetry_space_group_name_H-M   'P 1'
_cell_length_a   6.56470000
_cell_length_b   6.56470000
_cell_length_c   11.34700000
_cell_angle_alpha   99.81670000
_cell_angle_beta   99.81670000
_cell_angle_gamma   102.91300000
_symmetry_Int_Tables_number   1
_chemical_formula_structural   AgH6(CN2)3
_chemical_formula_sum   'Ag2 H12 C6 N12'
_cell_volume   458.44579391
_cell_formula_units_Z   2
loop_
 _symmetry_equiv_pos_site_id
 _symmetry_equiv_pos_as_xyz
  1  'x, y, z'
loop_
 _atom_site_type_symbol
 _atom_site_label
 _atom_site_symmetry_multiplicity
 _atom_site_fract_x
 _atom_site_fract_y
 _atom_site_fract_z
 _atom_site_occupancy
  Ag  Ag0  1  0.26199000  0.98769000  0.75395000  1
  Ag  Ag1  1  0.98769000  0.26199000  0.25395000  1
  H  H2  1  0.58520000  0.94100000  0.62770000  1
  H  H3  1  0.41540000  0.92860000  0.01160000  1
  H  H4  1  0.00090000  0.81410000  0.11930000  1
  H  H5  1  0.01390000  0.58530000  0.62590000  1
  H  H6  1  0.94100000  0.58520000  0.12770000  1
  H  H7  1  0.92860000  0.41540000  0.51160000  1
  H  H8  1  0.27370000  0.33890000  0.10240000  1
  H  H9  1  0.31880000  0.33480000  0.48130000  1
  H  H10  1  0.33480000  0.31880000  0.98130000  1
  H  H11  1  0.33890000  0.27370000  0.60240000  1
  H  H12  1  0.58530000  0.01390000  0.12590000  1
  H  H13  1  0.81410000  0.00090000  0.61930000  1
  C  C14  1  0.05280000  0.78260000  0.29580000  1
  C  C15  1  0.05210000  0.69190000  0.48050000  1
  C  C16  1  0.03690000  0.19210000  0.96870000  1
  C  C17  1  0.78260000  0.05280000  0.79580000  1
  C  C18  1  0.69190000  0.05210000  0.98050000  1
  C  C19  1  0.19210000  0.03690000  0.46870000  1
  N  N20  1  0.54660000  0.99080000  0.04750000  1
  N  N21  1  0.71850000  0.98950000  0.66280000  1
  N  N22  1  0.12710000  0.98830000  0.34770000  1
  N  N23  1  0.14730000  0.89190000  0.53930000  1
  N  N24  1  0.98950000  0.71850000  0.16280000  1
  N  N25  1  0.01600000  0.62380000  0.35750000  1
  N  N26  1  0.99080000  0.54660000  0.54750000  1
  N  N27  1  0.23920000  0.29560000  0.02400000  1
  N  N28  1  0.29560000  0.23920000  0.52400000  1
  N  N29  1  0.89190000  0.14730000  0.03930000  1
  N  N30  1  0.98830000  0.12710000  0.84770000  1
  N  N31  1  0.62380000  0.01600000  0.85750000  1
