# generated using pymatgen
data_CuH8C16(NO2)2
_symmetry_space_group_name_H-M   'P 1'
_cell_length_a   32.97660000
_cell_length_b   32.97660000
_cell_length_c   32.97660000
_cell_angle_alpha   60.00000000
_cell_angle_beta   60.00000000
_cell_angle_gamma   60.00000000
_symmetry_Int_Tables_number   1
_chemical_formula_structural   CuH8C16(NO2)2
_chemical_formula_sum   'Cu12 H96 C192 N24 O48'
_cell_volume   25357.27795981
_cell_formula_units_Z   12
loop_
 _symmetry_equiv_pos_site_id
 _symmetry_equiv_pos_as_xyz
  1  'x, y, z'
loop_
 _atom_site_type_symbol
 _atom_site_label
 _atom_site_symmetry_multiplicity
 _atom_site_fract_x
 _atom_site_fract_y
 _atom_site_fract_z
 _atom_site_occupancy
  Cu  Cu0  1  0.04027000  0.50000000  0.95973000  1
  Cu  Cu1  1  0.50000000  0.04027000  0.95973000  1
  Cu  Cu2  1  0.50000000  0.50000000  0.95973000  1
  Cu  Cu3  1  0.04027000  0.50000000  0.50000000  1
  Cu  Cu4  1  0.50000000  0.04027000  0.50000000  1
  Cu  Cu5  1  0.04027000  0.95973000  0.50000000  1
  Cu  Cu6  1  0.95973000  0.04027000  0.50000000  1
  Cu  Cu7  1  0.50000000  0.95973000  0.50000000  1
  Cu  Cu8  1  0.95973000  0.50000000  0.50000000  1
  Cu  Cu9  1  0.50000000  0.50000000  0.04027000  1
  Cu  Cu10  1  0.50000000  0.95973000  0.04027000  1
  Cu  Cu11  1  0.95973000  0.50000000  0.04027000  1
  H  H12  1  0.47610000  0.65450000  0.99610000  1
  H  H13  1  0.65450000  0.47610000  0.99610000  1
  H  H14  1  0.47610000  0.87330000  0.99610000  1
  H  H15  1  0.87330000  0.47610000  0.99610000  1
  H  H16  1  0.65450000  0.87330000  0.99610000  1
  H  H17  1  0.87330000  0.65450000  0.99610000  1
  H  H18  1  0.47230000  0.73730000  0.95610000  1
  H  H19  1  0.73730000  0.47230000  0.95610000  1
  H  H20  1  0.47230000  0.83430000  0.95610000  1
  H  H21  1  0.83430000  0.47230000  0.95610000  1
  H  H22  1  0.73730000  0.83430000  0.95610000  1
  H  H23  1  0.83430000  0.73730000  0.95610000  1
  H  H24  1  0.47610000  0.65450000  0.87330000  1
  H  H25  1  0.65450000  0.47610000  0.87330000  1
  H  H26  1  0.47610000  0.99610000  0.87330000  1
  H  H27  1  0.99610000  0.47610000  0.87330000  1
  H  H28  1  0.65450000  0.99610000  0.87330000  1
  H  H29  1  0.99610000  0.65450000  0.87330000  1
  H  H30  1  0.47230000  0.73730000  0.83430000  1
  H  H31  1  0.73730000  0.47230000  0.83430000  1
  H  H32  1  0.47230000  0.95610000  0.83430000  1
  H  H33  1  0.95610000  0.47230000  0.83430000  1
  H  H34  1  0.73730000  0.95610000  0.83430000  1
  H  H35  1  0.95610000  0.73730000  0.83430000  1
  H  H36  1  0.47230000  0.83430000  0.73730000  1
  H  H37  1  0.83430000  0.47230000  0.73730000  1
  H  H38  1  0.47230000  0.95610000  0.73730000  1
  H  H39  1  0.95610000  0.47230000  0.73730000  1
  H  H40  1  0.83430000  0.95610000  0.73730000  1
  H  H41  1  0.95610000  0.83430000  0.73730000  1
  H  H42  1  0.47610000  0.87330000  0.65450000  1
  H  H43  1  0.87330000  0.47610000  0.65450000  1
  H  H44  1  0.47610000  0.99610000  0.65450000  1
  H  H45  1  0.99610000  0.47610000  0.65450000  1
  H  H46  1  0.87330000  0.99610000  0.65450000  1
  H  H47  1  0.99610000  0.87330000  0.65450000  1
  H  H48  1  0.04390000  0.16570000  0.52770000  1
  H  H49  1  0.16570000  0.04390000  0.52770000  1
  H  H50  1  0.04390000  0.26270000  0.52770000  1
  H  H51  1  0.26270000  0.04390000  0.52770000  1
  H  H52  1  0.16570000  0.26270000  0.52770000  1
  H  H53  1  0.26270000  0.16570000  0.52770000  1
  H  H54  1  0.00390000  0.12670000  0.52390000  1
  H  H55  1  0.12670000  0.00390000  0.52390000  1
  H  H56  1  0.00390000  0.34550000  0.52390000  1
  H  H57  1  0.34550000  0.00390000  0.52390000  1
  H  H58  1  0.12670000  0.34550000  0.52390000  1
  H  H59  1  0.34550000  0.12670000  0.52390000  1
  H  H60  1  0.65450000  0.87330000  0.47610000  1
  H  H61  1  0.87330000  0.65450000  0.47610000  1
  H  H62  1  0.65450000  0.99610000  0.47610000  1
  H  H63  1  0.99610000  0.65450000  0.47610000  1
  H  H64  1  0.87330000  0.99610000  0.47610000  1
  H  H65  1  0.99610000  0.87330000  0.47610000  1
  H  H66  1  0.73730000  0.83430000  0.47230000  1
  H  H67  1  0.83430000  0.73730000  0.47230000  1
  H  H68  1  0.73730000  0.95610000  0.47230000  1
  H  H69  1  0.95610000  0.73730000  0.47230000  1
  H  H70  1  0.83430000  0.95610000  0.47230000  1
  H  H71  1  0.95610000  0.83430000  0.47230000  1
  H  H72  1  0.00390000  0.12670000  0.34550000  1
  H  H73  1  0.12670000  0.00390000  0.34550000  1
  H  H74  1  0.00390000  0.52390000  0.34550000  1
  H  H75  1  0.52390000  0.00390000  0.34550000  1
  H  H76  1  0.12670000  0.52390000  0.34550000  1
  H  H77  1  0.52390000  0.12670000  0.34550000  1
  H  H78  1  0.04390000  0.16570000  0.26270000  1
  H  H79  1  0.16570000  0.04390000  0.26270000  1
  H  H80  1  0.04390000  0.52770000  0.26270000  1
  H  H81  1  0.52770000  0.04390000  0.26270000  1
  H  H82  1  0.16570000  0.52770000  0.26270000  1
  H  H83  1  0.52770000  0.16570000  0.26270000  1
  H  H84  1  0.04390000  0.26270000  0.16570000  1
  H  H85  1  0.26270000  0.04390000  0.16570000  1
  H  H86  1  0.04390000  0.52770000  0.16570000  1
  H  H87  1  0.52770000  0.04390000  0.16570000  1
  H  H88  1  0.26270000  0.52770000  0.16570000  1
  H  H89  1  0.52770000  0.26270000  0.16570000  1
  H  H90  1  0.00390000  0.34550000  0.12670000  1
  H  H91  1  0.34550000  0.00390000  0.12670000  1
  H  H92  1  0.00390000  0.52390000  0.12670000  1
  H  H93  1  0.52390000  0.00390000  0.12670000  1
  H  H94  1  0.34550000  0.52390000  0.12670000  1
  H  H95  1  0.52390000  0.34550000  0.12670000  1
  H  H96  1  0.16570000  0.26270000  0.04390000  1
  H  H97  1  0.26270000  0.16570000  0.04390000  1
  H  H98  1  0.16570000  0.52770000  0.04390000  1
  H  H99  1  0.52770000  0.16570000  0.04390000  1
  H  H100  1  0.26270000  0.52770000  0.04390000  1
  H  H101  1  0.52770000  0.26270000  0.04390000  1
  H  H102  1  0.12670000  0.34550000  0.00390000  1
  H  H103  1  0.34550000  0.12670000  0.00390000  1
  H  H104  1  0.12670000  0.52390000  0.00390000  1
  H  H105  1  0.52390000  0.12670000  0.00390000  1
  H  H106  1  0.34550000  0.52390000  0.00390000  1
  H  H107  1  0.52390000  0.34550000  0.00390000  1
  C  C108  1  0.47637000  0.67077000  0.96307000  1
  C  C109  1  0.67077000  0.47637000  0.96307000  1
  C  C110  1  0.47637000  0.88979000  0.96307000  1
  C  C111  1  0.88979000  0.47637000  0.96307000  1
  C  C112  1  0.67077000  0.88979000  0.96307000  1
  C  C113  1  0.88979000  0.67077000  0.96307000  1
  C  C114  1  0.48686000  0.58954000  0.96180000  1
  C  C115  1  0.58954000  0.48686000  0.96180000  1
  C  C116  1  0.48686000  0.96180000  0.96180000  1
  C  C117  1  0.96180000  0.48686000  0.96180000  1
  C  C118  1  0.58954000  0.96180000  0.96180000  1
  C  C119  1  0.96180000  0.58954000  0.96180000  1
  C  C120  1  0.47329000  0.72043000  0.93943000  1
  C  C121  1  0.72043000  0.47329000  0.93943000  1
  C  C122  1  0.47329000  0.86685000  0.93943000  1
  C  C123  1  0.86685000  0.47329000  0.93943000  1
  C  C124  1  0.72043000  0.86685000  0.93943000  1
  C  C125  1  0.86685000  0.72043000  0.93943000  1
  C  C126  1  0.48003000  0.64507000  0.93745000  1
  C  C127  1  0.64507000  0.48003000  0.93745000  1
  C  C128  1  0.48003000  0.93745000  0.93745000  1
  C  C129  1  0.93745000  0.48003000  0.93745000  1
  C  C130  1  0.64507000  0.93745000  0.93745000  1
  C  C131  1  0.93745000  0.64507000  0.93745000  1
  C  C132  1  0.47154000  0.74514000  0.89166000  1
  C  C133  1  0.74514000  0.47154000  0.89166000  1
  C  C134  1  0.47154000  0.89166000  0.89166000  1
  C  C135  1  0.89166000  0.47154000  0.89166000  1
  C  C136  1  0.74514000  0.89166000  0.89166000  1
  C  C137  1  0.89166000  0.74514000  0.89166000  1
  C  C138  1  0.47637000  0.67077000  0.88979000  1
  C  C139  1  0.67077000  0.47637000  0.88979000  1
  C  C140  1  0.47637000  0.96307000  0.88979000  1
  C  C141  1  0.96307000  0.47637000  0.88979000  1
  C  C142  1  0.67077000  0.96307000  0.88979000  1
  C  C143  1  0.96307000  0.67077000  0.88979000  1
  C  C144  1  0.47329000  0.72043000  0.86685000  1
  C  C145  1  0.72043000  0.47329000  0.86685000  1
  C  C146  1  0.47329000  0.93943000  0.86685000  1
  C  C147  1  0.93943000  0.47329000  0.86685000  1
  C  C148  1  0.72043000  0.93943000  0.86685000  1
  C  C149  1  0.93943000  0.72043000  0.86685000  1
  C  C150  1  0.46820000  0.79904000  0.86638000  1
  C  C151  1  0.79904000  0.46820000  0.86638000  1
  C  C152  1  0.46820000  0.86638000  0.86638000  1
  C  C153  1  0.86638000  0.46820000  0.86638000  1
  C  C154  1  0.79904000  0.86638000  0.86638000  1
  C  C155  1  0.86638000  0.79904000  0.86638000  1
  C  C156  1  0.46820000  0.86638000  0.79904000  1
  C  C157  1  0.86638000  0.46820000  0.79904000  1
  C  C158  1  0.86638000  0.86638000  0.79904000  1
  C  C159  1  0.47154000  0.89166000  0.74514000  1
  C  C160  1  0.89166000  0.47154000  0.74514000  1
  C  C161  1  0.89166000  0.89166000  0.74514000  1
  C  C162  1  0.47329000  0.86685000  0.72043000  1
  C  C163  1  0.86685000  0.47329000  0.72043000  1
  C  C164  1  0.47329000  0.93943000  0.72043000  1
  C  C165  1  0.93943000  0.47329000  0.72043000  1
  C  C166  1  0.86685000  0.93943000  0.72043000  1
  C  C167  1  0.93943000  0.86685000  0.72043000  1
  C  C168  1  0.47637000  0.88979000  0.67077000  1
  C  C169  1  0.88979000  0.47637000  0.67077000  1
  C  C170  1  0.47637000  0.96307000  0.67077000  1
  C  C171  1  0.96307000  0.47637000  0.67077000  1
  C  C172  1  0.88979000  0.96307000  0.67077000  1
  C  C173  1  0.96307000  0.88979000  0.67077000  1
  C  C174  1  0.48003000  0.93745000  0.64507000  1
  C  C175  1  0.93745000  0.48003000  0.64507000  1
  C  C176  1  0.93745000  0.93745000  0.64507000  1
  C  C177  1  0.48686000  0.96180000  0.58954000  1
  C  C178  1  0.96180000  0.48686000  0.58954000  1
  C  C179  1  0.96180000  0.96180000  0.58954000  1
  C  C180  1  0.13362000  0.13362000  0.53180000  1
  C  C181  1  0.13362000  0.20096000  0.53180000  1
  C  C182  1  0.20096000  0.13362000  0.53180000  1
  C  C183  1  0.10834000  0.10834000  0.52846000  1
  C  C184  1  0.10834000  0.25486000  0.52846000  1
  C  C185  1  0.25486000  0.10834000  0.52846000  1
  C  C186  1  0.06057000  0.13315000  0.52671000  1
  C  C187  1  0.13315000  0.06057000  0.52671000  1
  C  C188  1  0.06057000  0.27957000  0.52671000  1
  C  C189  1  0.27957000  0.06057000  0.52671000  1
  C  C190  1  0.13315000  0.27957000  0.52671000  1
  C  C191  1  0.27957000  0.13315000  0.52671000  1
  C  C192  1  0.03693000  0.11021000  0.52363000  1
  C  C193  1  0.11021000  0.03693000  0.52363000  1
  C  C194  1  0.03693000  0.32923000  0.52363000  1
  C  C195  1  0.32923000  0.03693000  0.52363000  1
  C  C196  1  0.11021000  0.32923000  0.52363000  1
  C  C197  1  0.32923000  0.11021000  0.52363000  1
  C  C198  1  0.06255000  0.06255000  0.51997000  1
  C  C199  1  0.06255000  0.35493000  0.51997000  1
  C  C200  1  0.35493000  0.06255000  0.51997000  1
  C  C201  1  0.03820000  0.03820000  0.51314000  1
  C  C202  1  0.03820000  0.41046000  0.51314000  1
  C  C203  1  0.41046000  0.03820000  0.51314000  1
  C  C204  1  0.58954000  0.96180000  0.48686000  1
  C  C205  1  0.96180000  0.58954000  0.48686000  1
  C  C206  1  0.96180000  0.96180000  0.48686000  1
  C  C207  1  0.64507000  0.93745000  0.48003000  1
  C  C208  1  0.93745000  0.64507000  0.48003000  1
  C  C209  1  0.93745000  0.93745000  0.48003000  1
  C  C210  1  0.67077000  0.88979000  0.47637000  1
  C  C211  1  0.88979000  0.67077000  0.47637000  1
  C  C212  1  0.67077000  0.96307000  0.47637000  1
  C  C213  1  0.96307000  0.67077000  0.47637000  1
  C  C214  1  0.88979000  0.96307000  0.47637000  1
  C  C215  1  0.96307000  0.88979000  0.47637000  1
  C  C216  1  0.72043000  0.86685000  0.47329000  1
  C  C217  1  0.86685000  0.72043000  0.47329000  1
  C  C218  1  0.72043000  0.93943000  0.47329000  1
  C  C219  1  0.93943000  0.72043000  0.47329000  1
  C  C220  1  0.86685000  0.93943000  0.47329000  1
  C  C221  1  0.93943000  0.86685000  0.47329000  1
  C  C222  1  0.74514000  0.89166000  0.47154000  1
  C  C223  1  0.89166000  0.74514000  0.47154000  1
  C  C224  1  0.89166000  0.89166000  0.47154000  1
  C  C225  1  0.79904000  0.86638000  0.46820000  1
  C  C226  1  0.86638000  0.79904000  0.46820000  1
  C  C227  1  0.86638000  0.86638000  0.46820000  1
  C  C228  1  0.03820000  0.03820000  0.41046000  1
  C  C229  1  0.03820000  0.51314000  0.41046000  1
  C  C230  1  0.51314000  0.03820000  0.41046000  1
  C  C231  1  0.06255000  0.06255000  0.35493000  1
  C  C232  1  0.06255000  0.51997000  0.35493000  1
  C  C233  1  0.51997000  0.06255000  0.35493000  1
  C  C234  1  0.03693000  0.11021000  0.32923000  1
  C  C235  1  0.11021000  0.03693000  0.32923000  1
  C  C236  1  0.03693000  0.52363000  0.32923000  1
  C  C237  1  0.52363000  0.03693000  0.32923000  1
  C  C238  1  0.11021000  0.52363000  0.32923000  1
  C  C239  1  0.52363000  0.11021000  0.32923000  1
  C  C240  1  0.06057000  0.13315000  0.27957000  1
  C  C241  1  0.13315000  0.06057000  0.27957000  1
  C  C242  1  0.06057000  0.52671000  0.27957000  1
  C  C243  1  0.52671000  0.06057000  0.27957000  1
  C  C244  1  0.13315000  0.52671000  0.27957000  1
  C  C245  1  0.52671000  0.13315000  0.27957000  1
  C  C246  1  0.10834000  0.10834000  0.25486000  1
  C  C247  1  0.10834000  0.52846000  0.25486000  1
  C  C248  1  0.52846000  0.10834000  0.25486000  1
  C  C249  1  0.13362000  0.13362000  0.20096000  1
  C  C250  1  0.13362000  0.53180000  0.20096000  1
  C  C251  1  0.53180000  0.13362000  0.20096000  1
  C  C252  1  0.13362000  0.20096000  0.13362000  1
  C  C253  1  0.20096000  0.13362000  0.13362000  1
  C  C254  1  0.13362000  0.53180000  0.13362000  1
  C  C255  1  0.53180000  0.13362000  0.13362000  1
  C  C256  1  0.20096000  0.53180000  0.13362000  1
  C  C257  1  0.53180000  0.20096000  0.13362000  1
  C  C258  1  0.06057000  0.27957000  0.13315000  1
  C  C259  1  0.27957000  0.06057000  0.13315000  1
  C  C260  1  0.06057000  0.52671000  0.13315000  1
  C  C261  1  0.52671000  0.06057000  0.13315000  1
  C  C262  1  0.27957000  0.52671000  0.13315000  1
  C  C263  1  0.52671000  0.27957000  0.13315000  1
  C  C264  1  0.03693000  0.32923000  0.11021000  1
  C  C265  1  0.32923000  0.03693000  0.11021000  1
  C  C266  1  0.03693000  0.52363000  0.11021000  1
  C  C267  1  0.52363000  0.03693000  0.11021000  1
  C  C268  1  0.32923000  0.52363000  0.11021000  1
  C  C269  1  0.52363000  0.32923000  0.11021000  1
  C  C270  1  0.10834000  0.25486000  0.10834000  1
  C  C271  1  0.25486000  0.10834000  0.10834000  1
  C  C272  1  0.10834000  0.52846000  0.10834000  1
  C  C273  1  0.52846000  0.10834000  0.10834000  1
  C  C274  1  0.25486000  0.52846000  0.10834000  1
  C  C275  1  0.52846000  0.25486000  0.10834000  1
  C  C276  1  0.06255000  0.35493000  0.06255000  1
  C  C277  1  0.35493000  0.06255000  0.06255000  1
  C  C278  1  0.06255000  0.51997000  0.06255000  1
  C  C279  1  0.51997000  0.06255000  0.06255000  1
  C  C280  1  0.35493000  0.51997000  0.06255000  1
  C  C281  1  0.51997000  0.35493000  0.06255000  1
  C  C282  1  0.13315000  0.27957000  0.06057000  1
  C  C283  1  0.27957000  0.13315000  0.06057000  1
  C  C284  1  0.13315000  0.52671000  0.06057000  1
  C  C285  1  0.52671000  0.13315000  0.06057000  1
  C  C286  1  0.27957000  0.52671000  0.06057000  1
  C  C287  1  0.52671000  0.27957000  0.06057000  1
  C  C288  1  0.03820000  0.41046000  0.03820000  1
  C  C289  1  0.41046000  0.03820000  0.03820000  1
  C  C290  1  0.03820000  0.51314000  0.03820000  1
  C  C291  1  0.51314000  0.03820000  0.03820000  1
  C  C292  1  0.41046000  0.51314000  0.03820000  1
  C  C293  1  0.51314000  0.41046000  0.03820000  1
  C  C294  1  0.11021000  0.32923000  0.03693000  1
  C  C295  1  0.32923000  0.11021000  0.03693000  1
  C  C296  1  0.11021000  0.52363000  0.03693000  1
  C  C297  1  0.52363000  0.11021000  0.03693000  1
  C  C298  1  0.32923000  0.52363000  0.03693000  1
  C  C299  1  0.52363000  0.32923000  0.03693000  1
  N  N300  1  0.46856000  0.82000000  0.89144000  1
  N  N301  1  0.82000000  0.46856000  0.89144000  1
  N  N302  1  0.82000000  0.82000000  0.89144000  1
  N  N303  1  0.46856000  0.82000000  0.82000000  1
  N  N304  1  0.82000000  0.46856000  0.82000000  1
  N  N305  1  0.46856000  0.89144000  0.82000000  1
  N  N306  1  0.89144000  0.46856000  0.82000000  1
  N  N307  1  0.82000000  0.89144000  0.82000000  1
  N  N308  1  0.89144000  0.82000000  0.82000000  1
  N  N309  1  0.10856000  0.18000000  0.53144000  1
  N  N310  1  0.18000000  0.10856000  0.53144000  1
  N  N311  1  0.18000000  0.18000000  0.53144000  1
  N  N312  1  0.82000000  0.82000000  0.46856000  1
  N  N313  1  0.82000000  0.89144000  0.46856000  1
  N  N314  1  0.89144000  0.82000000  0.46856000  1
  N  N315  1  0.10856000  0.18000000  0.18000000  1
  N  N316  1  0.18000000  0.10856000  0.18000000  1
  N  N317  1  0.10856000  0.53144000  0.18000000  1
  N  N318  1  0.53144000  0.10856000  0.18000000  1
  N  N319  1  0.18000000  0.53144000  0.18000000  1
  N  N320  1  0.53144000  0.18000000  0.18000000  1
  N  N321  1  0.18000000  0.18000000  0.10856000  1
  N  N322  1  0.18000000  0.53144000  0.10856000  1
  N  N323  1  0.53144000  0.18000000  0.10856000  1
  O  O324  1  0.06358000  0.42792000  0.99556000  1
  O  O325  1  0.42792000  0.06358000  0.99556000  1
  O  O326  1  0.06358000  0.51294000  0.99556000  1
  O  O327  1  0.51294000  0.06358000  0.99556000  1
  O  O328  1  0.42792000  0.51294000  0.99556000  1
  O  O329  1  0.51294000  0.42792000  0.99556000  1
  O  O330  1  0.00444000  0.48706000  0.93642000  1
  O  O331  1  0.48706000  0.00444000  0.93642000  1
  O  O332  1  0.00444000  0.57208000  0.93642000  1
  O  O333  1  0.57208000  0.00444000  0.93642000  1
  O  O334  1  0.48706000  0.57208000  0.93642000  1
  O  O335  1  0.57208000  0.48706000  0.93642000  1
  O  O336  1  0.00444000  0.48706000  0.57208000  1
  O  O337  1  0.48706000  0.00444000  0.57208000  1
  O  O338  1  0.00444000  0.93642000  0.57208000  1
  O  O339  1  0.93642000  0.00444000  0.57208000  1
  O  O340  1  0.48706000  0.93642000  0.57208000  1
  O  O341  1  0.93642000  0.48706000  0.57208000  1
  O  O342  1  0.06358000  0.42792000  0.51294000  1
  O  O343  1  0.42792000  0.06358000  0.51294000  1
  O  O344  1  0.06358000  0.99556000  0.51294000  1
  O  O345  1  0.99556000  0.06358000  0.51294000  1
  O  O346  1  0.42792000  0.99556000  0.51294000  1
  O  O347  1  0.99556000  0.42792000  0.51294000  1
  O  O348  1  0.00444000  0.57208000  0.48706000  1
  O  O349  1  0.57208000  0.00444000  0.48706000  1
  O  O350  1  0.00444000  0.93642000  0.48706000  1
  O  O351  1  0.93642000  0.00444000  0.48706000  1
  O  O352  1  0.57208000  0.93642000  0.48706000  1
  O  O353  1  0.93642000  0.57208000  0.48706000  1
  O  O354  1  0.06358000  0.51294000  0.42792000  1
  O  O355  1  0.51294000  0.06358000  0.42792000  1
  O  O356  1  0.06358000  0.99556000  0.42792000  1
  O  O357  1  0.99556000  0.06358000  0.42792000  1
  O  O358  1  0.51294000  0.99556000  0.42792000  1
  O  O359  1  0.99556000  0.51294000  0.42792000  1
  O  O360  1  0.42792000  0.51294000  0.06358000  1
  O  O361  1  0.51294000  0.42792000  0.06358000  1
  O  O362  1  0.42792000  0.99556000  0.06358000  1
  O  O363  1  0.99556000  0.42792000  0.06358000  1
  O  O364  1  0.51294000  0.99556000  0.06358000  1
  O  O365  1  0.99556000  0.51294000  0.06358000  1
  O  O366  1  0.48706000  0.57208000  0.00444000  1
  O  O367  1  0.57208000  0.48706000  0.00444000  1
  O  O368  1  0.48706000  0.93642000  0.00444000  1
  O  O369  1  0.93642000  0.48706000  0.00444000  1
  O  O370  1  0.57208000  0.93642000  0.00444000  1
  O  O371  1  0.93642000  0.57208000  0.00444000  1
