# generated using pymatgen
data_Co2H10C21N2O9
_symmetry_space_group_name_H-M   'P 1'
_cell_length_a   7.36270000
_cell_length_b   12.33000000
_cell_length_c   13.92900000
_cell_angle_alpha   83.43900000
_cell_angle_beta   81.48500000
_cell_angle_gamma   72.67400000
_symmetry_Int_Tables_number   1
_chemical_formula_structural   Co2H10C21N2O9
_chemical_formula_sum   'Co4 H20 C42 N4 O18'
_cell_volume   1190.52032380
_cell_formula_units_Z   2
loop_
 _symmetry_equiv_pos_site_id
 _symmetry_equiv_pos_as_xyz
  1  'x, y, z'
loop_
 _atom_site_type_symbol
 _atom_site_label
 _atom_site_symmetry_multiplicity
 _atom_site_fract_x
 _atom_site_fract_y
 _atom_site_fract_z
 _atom_site_occupancy
  Co  Co0  1  0.08419000  0.06372000  0.24816000  1
  Co  Co1  1  0.45522000  0.78990000  0.95969000  1
  Co  Co2  1  0.54478000  0.21010000  0.04031000  1
  Co  Co3  1  0.91581000  0.93628000  0.75184000  1
  H  H4  1  0.00600000  0.81500000  0.55900000  1
  H  H5  1  0.01150000  0.62960000  0.22060000  1
  H  H6  1  0.06900000  0.86700000  0.40000000  1
  H  H7  1  0.07580000  0.42560000  0.30180000  1
  H  H8  1  0.20700000  0.62500000  0.98000000  1
  H  H9  1  0.24900000  0.43200000  0.02000000  1
  H  H10  1  0.25970000  0.31250000  0.51100000  1
  H  H11  1  0.29690000  0.60120000  0.66750000  1
  H  H12  1  0.45680000  0.77930000  0.42490000  1
  H  H13  1  0.45880000  0.54520000  0.39890000  1
  H  H14  1  0.54120000  0.45480000  0.60110000  1
  H  H15  1  0.54320000  0.22070000  0.57510000  1
  H  H16  1  0.70310000  0.39880000  0.33250000  1
  H  H17  1  0.74030000  0.68750000  0.48900000  1
  H  H18  1  0.75100000  0.56800000  0.98000000  1
  H  H19  1  0.79300000  0.37500000  0.02000000  1
  H  H20  1  0.92420000  0.57440000  0.69820000  1
  H  H21  1  0.93100000  0.13300000  0.60000000  1
  H  H22  1  0.98850000  0.37040000  0.77940000  1
  H  H23  1  0.99400000  0.18500000  0.44100000  1
  C  C24  1  0.00060000  0.10500000  0.46180000  1
  C  C25  1  0.03740000  0.91720000  0.43990000  1
  C  C26  1  0.08710000  0.59370000  0.40640000  1
  C  C27  1  0.09550000  0.35120000  0.63910000  1
  C  C28  1  0.09890000  0.33830000  0.73850000  1
  C  C29  1  0.20230000  0.42050000  0.30780000  1
  C  C30  1  0.23950000  0.50120000  0.35650000  1
  C  C31  1  0.26210000  0.30530000  0.57800000  1
  C  C32  1  0.26290000  0.26080000  0.88860000  1
  C  C33  1  0.26760000  0.27710000  0.77870000  1
  C  C34  1  0.29300000  0.24120000  0.22370000  1
  C  C35  1  0.29480000  0.76650000  0.76910000  1
  C  C36  1  0.33020000  0.57370000  0.99280000  1
  C  C37  1  0.34770000  0.33160000  0.26710000  1
  C  C38  1  0.35070000  0.45770000  0.01090000  1
  C  C39  1  0.37250000  0.82930000  0.24880000  1
  C  C40  1  0.42310000  0.59520000  0.67490000  1
  C  C41  1  0.43050000  0.49220000  0.36560000  1
  C  C42  1  0.43150000  0.24910000  0.61640000  1
  C  C43  1  0.43420000  0.23500000  0.71770000  1
  C  C44  1  0.46120000  0.67380000  0.72600000  1
  C  C45  1  0.53880000  0.32620000  0.27400000  1
  C  C46  1  0.56580000  0.76500000  0.28230000  1
  C  C47  1  0.56850000  0.75090000  0.38360000  1
  C  C48  1  0.56950000  0.50780000  0.63440000  1
  C  C49  1  0.57690000  0.40480000  0.32510000  1
  C  C50  1  0.62750000  0.17070000  0.75120000  1
  C  C51  1  0.64930000  0.54230000  0.98910000  1
  C  C52  1  0.65230000  0.66840000  0.73290000  1
  C  C53  1  0.66980000  0.42630000  0.00720000  1
  C  C54  1  0.70520000  0.23350000  0.23090000  1
  C  C55  1  0.70700000  0.75880000  0.77630000  1
  C  C56  1  0.73240000  0.72290000  0.22130000  1
  C  C57  1  0.73710000  0.73920000  0.11140000  1
  C  C58  1  0.73790000  0.69470000  0.42200000  1
  C  C59  1  0.76050000  0.49880000  0.64350000  1
  C  C60  1  0.79770000  0.57950000  0.69220000  1
  C  C61  1  0.90110000  0.66170000  0.26150000  1
  C  C62  1  0.90450000  0.64880000  0.36090000  1
  C  C63  1  0.91290000  0.40630000  0.59360000  1
  C  C64  1  0.96260000  0.08280000  0.56010000  1
  C  C65  1  0.99940000  0.89500000  0.53820000  1
  N  N66  1  0.03970000  0.02200000  0.40060000  1
  N  N67  1  0.48060000  0.61650000  0.98290000  1
  N  N68  1  0.51940000  0.38350000  0.01710000  1
  N  N69  1  0.96030000  0.97800000  0.59940000  1
  O  O70  1  0.10850000  0.29120000  0.94110000  1
  O  O71  1  0.11020000  0.62400000  0.48280000  1
  O  O72  1  0.14980000  0.79730000  0.72710000  1
  O  O73  1  0.23710000  0.17090000  0.28110000  1
  O  O74  1  0.25480000  0.77730000  0.24140000  1
  O  O75  1  0.29410000  0.24490000  0.13220000  1
  O  O76  1  0.30490000  0.80950000  0.84450000  1
  O  O77  1  0.34040000  0.93700000  0.23710000  1
  O  O78  1  0.42380000  0.21340000  0.91850000  1
  O  O79  1  0.57620000  0.78660000  0.08150000  1
  O  O80  1  0.65960000  0.06300000  0.76290000  1
  O  O81  1  0.69510000  0.19050000  0.15550000  1
  O  O82  1  0.70590000  0.75510000  0.86780000  1
  O  O83  1  0.74520000  0.22270000  0.75860000  1
  O  O84  1  0.76290000  0.82910000  0.71890000  1
  O  O85  1  0.85020000  0.20270000  0.27290000  1
  O  O86  1  0.88980000  0.37600000  0.51720000  1
  O  O87  1  0.89150000  0.70880000  0.05890000  1
