# generated using pymatgen
data_ErH8C18N3O8
_symmetry_space_group_name_H-M   'P 1'
_cell_length_a   9.74940000
_cell_length_b   11.04840000
_cell_length_c   20.48450000
_cell_angle_alpha   90.00000000
_cell_angle_beta   90.00000000
_cell_angle_gamma   108.89800000
_symmetry_Int_Tables_number   1
_chemical_formula_structural   ErH8C18N3O8
_chemical_formula_sum   'Er4 H32 C72 N12 O32'
_cell_volume   2087.55611163
_cell_formula_units_Z   4
loop_
 _symmetry_equiv_pos_site_id
 _symmetry_equiv_pos_as_xyz
  1  'x, y, z'
loop_
 _atom_site_type_symbol
 _atom_site_label
 _atom_site_symmetry_multiplicity
 _atom_site_fract_x
 _atom_site_fract_y
 _atom_site_fract_z
 _atom_site_occupancy
  Er  Er0  1  0.19984000  0.68478000  0.46534000  1
  Er  Er1  1  0.30016000  0.31522000  0.96534000  1
  Er  Er2  1  0.69984000  0.68478000  0.03466000  1
  Er  Er3  1  0.80016000  0.31522000  0.53466000  1
  H  H4  1  0.00710000  0.86910000  0.79230000  1
  H  H5  1  0.08040000  0.55120000  0.28810000  1
  H  H6  1  0.11060000  0.25610000  0.74890000  1
  H  H7  1  0.17970000  0.63320000  0.85810000  1
  H  H8  1  0.18540000  0.94790000  0.12230000  1
  H  H9  1  0.19280000  0.29360000  0.17080000  1
  H  H10  1  0.22860000  0.01770000  0.81420000  1
  H  H11  1  0.24960000  0.33720000  0.65690000  1
  H  H12  1  0.25040000  0.66280000  0.15690000  1
  H  H13  1  0.27140000  0.98230000  0.31420000  1
  H  H14  1  0.30720000  0.70640000  0.67080000  1
  H  H15  1  0.31460000  0.05210000  0.62230000  1
  H  H16  1  0.32030000  0.36680000  0.35810000  1
  H  H17  1  0.38940000  0.74390000  0.24890000  1
  H  H18  1  0.41960000  0.44880000  0.78810000  1
  H  H19  1  0.49290000  0.13090000  0.29230000  1
  H  H20  1  0.50710000  0.86910000  0.70770000  1
  H  H21  1  0.58040000  0.55120000  0.21190000  1
  H  H22  1  0.61060000  0.25610000  0.75110000  1
  H  H23  1  0.67970000  0.63320000  0.64190000  1
  H  H24  1  0.68540000  0.94790000  0.37770000  1
  H  H25  1  0.69280000  0.29360000  0.32920000  1
  H  H26  1  0.72860000  0.01770000  0.68580000  1
  H  H27  1  0.74960000  0.33720000  0.84310000  1
  H  H28  1  0.75040000  0.66280000  0.34310000  1
  H  H29  1  0.77140000  0.98230000  0.18580000  1
  H  H30  1  0.80720000  0.70640000  0.82920000  1
  H  H31  1  0.81460000  0.05210000  0.87770000  1
  H  H32  1  0.82030000  0.36680000  0.14190000  1
  H  H33  1  0.88940000  0.74390000  0.25110000  1
  H  H34  1  0.91960000  0.44880000  0.71190000  1
  H  H35  1  0.99290000  0.13090000  0.20770000  1
  C  C36  1  0.00700000  0.50670000  0.72600000  1
  C  C37  1  0.00720000  0.85750000  0.74730000  1
  C  C38  1  0.01950000  0.19780000  0.75760000  1
  C  C39  1  0.02310000  0.83560000  0.17840000  1
  C  C40  1  0.03380000  0.52760000  0.79270000  1
  C  C41  1  0.03550000  0.81300000  0.36320000  1
  C  C42  1  0.07400000  0.85600000  0.29350000  1
  C  C43  1  0.07410000  0.54220000  0.15840000  1
  C  C44  1  0.07940000  0.22680000  0.87550000  1
  C  C45  1  0.08020000  0.54870000  0.60910000  1
  C  C46  1  0.09810000  0.22510000  0.28900000  1
  C  C47  1  0.10980000  0.57170000  0.68090000  1
  C  C48  1  0.15690000  0.92580000  0.16510000  1
  C  C49  1  0.16260000  0.61730000  0.81380000  1
  C  C50  1  0.20820000  0.94630000  0.28020000  1
  C  C51  1  0.23370000  0.31680000  0.26800000  1
  C  C52  1  0.23920000  0.66130000  0.70140000  1
  C  C53  1  0.24800000  0.98270000  0.21670000  1
  C  C54  1  0.25200000  0.01730000  0.71670000  1
  C  C55  1  0.26080000  0.33870000  0.20140000  1
  C  C56  1  0.26630000  0.68320000  0.76800000  1
  C  C57  1  0.29180000  0.05370000  0.78020000  1
  C  C58  1  0.33740000  0.38270000  0.31380000  1
  C  C59  1  0.34310000  0.07420000  0.66510000  1
  C  C60  1  0.39020000  0.42830000  0.18090000  1
  C  C61  1  0.40190000  0.77490000  0.78900000  1
  C  C62  1  0.41980000  0.45130000  0.10910000  1
  C  C63  1  0.42060000  0.77320000  0.37550000  1
  C  C64  1  0.42590000  0.45780000  0.65840000  1
  C  C65  1  0.42600000  0.14400000  0.79350000  1
  C  C66  1  0.46450000  0.18700000  0.86320000  1
  C  C67  1  0.46620000  0.47240000  0.29270000  1
  C  C68  1  0.47690000  0.16440000  0.67840000  1
  C  C69  1  0.48050000  0.80220000  0.25760000  1
  C  C70  1  0.49280000  0.14250000  0.24730000  1
  C  C71  1  0.49300000  0.49330000  0.22600000  1
  C  C72  1  0.50700000  0.50670000  0.77400000  1
  C  C73  1  0.50720000  0.85750000  0.75270000  1
  C  C74  1  0.51950000  0.19780000  0.74240000  1
  C  C75  1  0.52310000  0.83560000  0.32160000  1
  C  C76  1  0.53380000  0.52760000  0.70730000  1
  C  C77  1  0.53550000  0.81300000  0.13680000  1
  C  C78  1  0.57400000  0.85600000  0.20650000  1
  C  C79  1  0.57410000  0.54220000  0.34160000  1
  C  C80  1  0.57940000  0.22680000  0.62450000  1
  C  C81  1  0.58020000  0.54870000  0.89090000  1
  C  C82  1  0.59810000  0.22510000  0.21100000  1
  C  C83  1  0.60980000  0.57170000  0.81910000  1
  C  C84  1  0.65690000  0.92580000  0.33490000  1
  C  C85  1  0.66260000  0.61730000  0.68620000  1
  C  C86  1  0.70820000  0.94630000  0.21980000  1
  C  C87  1  0.73370000  0.31680000  0.23200000  1
  C  C88  1  0.73920000  0.66130000  0.79860000  1
  C  C89  1  0.74800000  0.98270000  0.28330000  1
  C  C90  1  0.75200000  0.01730000  0.78330000  1
  C  C91  1  0.76080000  0.33870000  0.29860000  1
  C  C92  1  0.76630000  0.68320000  0.73200000  1
  C  C93  1  0.79180000  0.05370000  0.71980000  1
  C  C94  1  0.83740000  0.38270000  0.18620000  1
  C  C95  1  0.84310000  0.07420000  0.83490000  1
  C  C96  1  0.89020000  0.42830000  0.31910000  1
  C  C97  1  0.90190000  0.77490000  0.71100000  1
  C  C98  1  0.91980000  0.45130000  0.39090000  1
  C  C99  1  0.92060000  0.77320000  0.12450000  1
  C  C100  1  0.92590000  0.45780000  0.84160000  1
  C  C101  1  0.92600000  0.14400000  0.70650000  1
  C  C102  1  0.96450000  0.18700000  0.63680000  1
  C  C103  1  0.96620000  0.47240000  0.20730000  1
  C  C104  1  0.97690000  0.16440000  0.82160000  1
  C  C105  1  0.98050000  0.80220000  0.24240000  1
  C  C106  1  0.99280000  0.14250000  0.25270000  1
  C  C107  1  0.99300000  0.49330000  0.27400000  1
  N  N108  1  0.05650000  0.21360000  0.35320000  1
  N  N109  1  0.07100000  0.87440000  0.64320000  1
  N  N110  1  0.11340000  0.92030000  0.70430000  1
  N  N111  1  0.38660000  0.07970000  0.20430000  1
  N  N112  1  0.42900000  0.12560000  0.14320000  1
  N  N113  1  0.44350000  0.78640000  0.85320000  1
  N  N114  1  0.55650000  0.21360000  0.14680000  1
  N  N115  1  0.57100000  0.87440000  0.85680000  1
  N  N116  1  0.61340000  0.92030000  0.79570000  1
  N  N117  1  0.88660000  0.07970000  0.29570000  1
  N  N118  1  0.92900000  0.12560000  0.35680000  1
  N  N119  1  0.94350000  0.78640000  0.64680000  1
  O  O120  1  0.04100000  0.52570000  0.40830000  1
  O  O121  1  0.05960000  0.53010000  0.10000000  1
  O  O122  1  0.06120000  0.17950000  0.93230000  1
  O  O123  1  0.09370000  0.23830000  0.62000000  1
  O  O124  1  0.14110000  0.83220000  0.40140000  1
  O  O125  1  0.17840000  0.60640000  0.57010000  1
  O  O126  1  0.18400000  0.32590000  0.86310000  1
  O  O127  1  0.18950000  0.62170000  0.18580000  1
  O  O128  1  0.31050000  0.37830000  0.68580000  1
  O  O129  1  0.31600000  0.67410000  0.36310000  1
  O  O130  1  0.32160000  0.39360000  0.07010000  1
  O  O131  1  0.35890000  0.16780000  0.90140000  1
  O  O132  1  0.40630000  0.76170000  0.12000000  1
  O  O133  1  0.43880000  0.82050000  0.43230000  1
  O  O134  1  0.44040000  0.46990000  0.60000000  1
  O  O135  1  0.45900000  0.47430000  0.90830000  1
  O  O136  1  0.54100000  0.52570000  0.09170000  1
  O  O137  1  0.55960000  0.53010000  0.40000000  1
  O  O138  1  0.56120000  0.17950000  0.56770000  1
  O  O139  1  0.59370000  0.23830000  0.88000000  1
  O  O140  1  0.64110000  0.83220000  0.09860000  1
  O  O141  1  0.67840000  0.60640000  0.92990000  1
  O  O142  1  0.68400000  0.32590000  0.63690000  1
  O  O143  1  0.68950000  0.62170000  0.31420000  1
  O  O144  1  0.81050000  0.37830000  0.81420000  1
  O  O145  1  0.81600000  0.67410000  0.13690000  1
  O  O146  1  0.82160000  0.39360000  0.42990000  1
  O  O147  1  0.85890000  0.16780000  0.59860000  1
  O  O148  1  0.90630000  0.76170000  0.38000000  1
  O  O149  1  0.93880000  0.82050000  0.06770000  1
  O  O150  1  0.94040000  0.46990000  0.90000000  1
  O  O151  1  0.95900000  0.47430000  0.59170000  1
