# generated using pymatgen
data_Sc3H30C54O13
_symmetry_space_group_name_H-M   'P 1'
_cell_length_a   16.84300000
_cell_length_b   31.47000000
_cell_length_c   31.47000000
_cell_angle_alpha   120.00000000
_cell_angle_beta   90.00000000
_cell_angle_gamma   90.00000000
_symmetry_Int_Tables_number   1
_chemical_formula_structural   Sc3H30C54O13
_chemical_formula_sum   'Sc18 H180 C324 O78'
_cell_volume   14445.86547272
_cell_formula_units_Z   6
loop_
 _symmetry_equiv_pos_site_id
 _symmetry_equiv_pos_as_xyz
  1  'x, y, z'
loop_
 _atom_site_type_symbol
 _atom_site_label
 _atom_site_symmetry_multiplicity
 _atom_site_fract_x
 _atom_site_fract_y
 _atom_site_fract_z
 _atom_site_occupancy
  Sc  Sc0  1  0.14726000  0.50137000  0.42941000  1
  Sc  Sc1  1  0.14726000  0.92804000  0.49863000  1
  Sc  Sc2  1  0.14726000  0.57059000  0.07196000  1
  Sc  Sc3  1  0.25000000  0.53904000  0.35788000  1
  Sc  Sc4  1  0.25000000  0.81884000  0.46096000  1
  Sc  Sc5  1  0.25000000  0.64212000  0.18116000  1
  Sc  Sc6  1  0.35274000  0.50137000  0.42941000  1
  Sc  Sc7  1  0.35274000  0.92804000  0.49863000  1
  Sc  Sc8  1  0.35274000  0.57059000  0.07196000  1
  Sc  Sc9  1  0.64726000  0.07196000  0.57059000  1
  Sc  Sc10  1  0.64726000  0.49863000  0.92804000  1
  Sc  Sc11  1  0.64726000  0.42941000  0.50137000  1
  Sc  Sc12  1  0.75000000  0.18116000  0.64212000  1
  Sc  Sc13  1  0.75000000  0.46096000  0.81884000  1
  Sc  Sc14  1  0.75000000  0.35788000  0.53904000  1
  Sc  Sc15  1  0.85274000  0.07196000  0.57059000  1
  Sc  Sc16  1  0.85274000  0.49863000  0.92804000  1
  Sc  Sc17  1  0.85274000  0.42941000  0.50137000  1
  H  H18  1  0.02160000  0.09520000  0.68280000  1
  H  H19  1  0.02160000  0.58760000  0.90480000  1
  H  H20  1  0.02160000  0.31720000  0.41240000  1
  H  H21  1  0.03030000  0.29270000  0.69310000  1
  H  H22  1  0.03030000  0.40040000  0.70730000  1
  H  H23  1  0.03030000  0.30690000  0.59960000  1
  H  H24  1  0.04250000  0.41060000  0.85690000  1
  H  H25  1  0.04250000  0.14310000  0.55370000  1
  H  H26  1  0.04250000  0.44630000  0.58940000  1
  H  H27  1  0.04690000  0.26040000  0.79150000  1
  H  H28  1  0.04690000  0.20850000  0.46890000  1
  H  H29  1  0.04690000  0.53110000  0.73960000  1
  H  H30  1  0.06760000  0.48670000  0.25560000  1
  H  H31  1  0.06760000  0.76890000  0.51330000  1
  H  H32  1  0.06760000  0.74440000  0.23110000  1
  H  H33  1  0.08240000  0.66390000  0.39640000  1
  H  H34  1  0.08240000  0.60360000  0.26750000  1
  H  H35  1  0.08240000  0.73250000  0.33610000  1
  H  H36  1  0.12880000  0.12400000  0.73400000  1
  H  H37  1  0.12880000  0.61000000  0.87600000  1
  H  H38  1  0.12880000  0.26600000  0.39000000  1
  H  H39  1  0.13110000  0.23240000  0.68320000  1
  H  H40  1  0.13110000  0.45080000  0.76760000  1
  H  H41  1  0.13110000  0.31680000  0.54920000  1
  H  H42  1  0.13240000  0.27440000  0.85220000  1
  H  H43  1  0.13240000  0.14780000  0.42220000  1
  H  H44  1  0.13240000  0.57780000  0.72560000  1
  H  H45  1  0.13290000  0.07460000  0.59900000  1
  H  H46  1  0.13290000  0.52440000  0.92540000  1
  H  H47  1  0.13290000  0.40100000  0.47560000  1
  H  H48  1  0.13400000  0.15990000  0.64000000  1
  H  H49  1  0.13400000  0.48010000  0.84010000  1
  H  H50  1  0.13400000  0.36000000  0.51990000  1
  H  H51  1  0.14530000  0.40530000  0.99670000  1
  H  H52  1  0.14530000  0.00330000  0.40860000  1
  H  H53  1  0.14530000  0.59140000  0.59470000  1
  H  H54  1  0.15300000  0.32310000  0.93910000  1
  H  H55  1  0.15300000  0.06090000  0.38400000  1
  H  H56  1  0.15300000  0.61600000  0.67690000  1
  H  H57  1  0.15320000  0.36710000  0.81770000  1
  H  H58  1  0.15320000  0.18230000  0.54940000  1
  H  H59  1  0.15320000  0.45060000  0.63290000  1
  H  H60  1  0.25000000  0.16890000  0.74070000  1
  H  H61  1  0.25000000  0.35680000  0.76470000  1
  H  H62  1  0.25000000  0.23530000  0.59210000  1
  H  H63  1  0.25000000  0.57180000  0.83110000  1
  H  H64  1  0.25000000  0.40790000  0.64320000  1
  H  H65  1  0.25000000  0.25930000  0.42820000  1
  H  H66  1  0.34680000  0.36710000  0.81770000  1
  H  H67  1  0.34680000  0.18230000  0.54940000  1
  H  H68  1  0.34680000  0.45060000  0.63290000  1
  H  H69  1  0.34700000  0.32310000  0.93910000  1
  H  H70  1  0.34700000  0.06090000  0.38400000  1
  H  H71  1  0.34700000  0.61600000  0.67690000  1
  H  H72  1  0.35470000  0.40530000  0.99670000  1
  H  H73  1  0.35470000  0.00330000  0.40860000  1
  H  H74  1  0.35470000  0.59140000  0.59470000  1
  H  H75  1  0.36600000  0.15990000  0.64000000  1
  H  H76  1  0.36600000  0.48010000  0.84010000  1
  H  H77  1  0.36600000  0.36000000  0.51990000  1
  H  H78  1  0.36710000  0.07460000  0.59900000  1
  H  H79  1  0.36710000  0.52440000  0.92540000  1
  H  H80  1  0.36710000  0.40100000  0.47560000  1
  H  H81  1  0.36760000  0.27440000  0.85220000  1
  H  H82  1  0.36760000  0.14780000  0.42220000  1
  H  H83  1  0.36760000  0.57780000  0.72560000  1
  H  H84  1  0.36890000  0.23240000  0.68320000  1
  H  H85  1  0.36890000  0.45080000  0.76760000  1
  H  H86  1  0.36890000  0.31680000  0.54920000  1
  H  H87  1  0.37120000  0.12400000  0.73400000  1
  H  H88  1  0.37120000  0.61000000  0.87600000  1
  H  H89  1  0.37120000  0.26600000  0.39000000  1
  H  H90  1  0.41760000  0.66390000  0.39640000  1
  H  H91  1  0.41760000  0.60360000  0.26750000  1
  H  H92  1  0.41760000  0.73250000  0.33610000  1
  H  H93  1  0.43240000  0.48670000  0.25560000  1
  H  H94  1  0.43240000  0.76890000  0.51330000  1
  H  H95  1  0.43240000  0.74440000  0.23110000  1
  H  H96  1  0.45310000  0.26040000  0.79150000  1
  H  H97  1  0.45310000  0.20850000  0.46890000  1
  H  H98  1  0.45310000  0.53110000  0.73960000  1
  H  H99  1  0.45750000  0.41060000  0.85690000  1
  H  H100  1  0.45750000  0.14310000  0.55370000  1
  H  H101  1  0.45750000  0.44630000  0.58940000  1
  H  H102  1  0.46970000  0.29270000  0.69310000  1
  H  H103  1  0.46970000  0.40040000  0.70730000  1
  H  H104  1  0.46970000  0.30690000  0.59960000  1
  H  H105  1  0.47840000  0.09520000  0.68280000  1
  H  H106  1  0.47840000  0.58760000  0.90480000  1
  H  H107  1  0.47840000  0.31720000  0.41240000  1
  H  H108  1  0.52160000  0.41240000  0.31720000  1
  H  H109  1  0.52160000  0.90480000  0.58760000  1
  H  H110  1  0.52160000  0.68280000  0.09520000  1
  H  H111  1  0.53030000  0.59960000  0.30690000  1
  H  H112  1  0.53030000  0.70730000  0.40040000  1
  H  H113  1  0.53030000  0.69310000  0.29270000  1
  H  H114  1  0.54250000  0.58940000  0.44630000  1
  H  H115  1  0.54250000  0.55370000  0.14310000  1
  H  H116  1  0.54250000  0.85690000  0.41060000  1
  H  H117  1  0.54690000  0.73960000  0.53110000  1
  H  H118  1  0.54690000  0.46890000  0.20850000  1
  H  H119  1  0.54690000  0.79150000  0.26040000  1
  H  H120  1  0.56760000  0.23110000  0.74440000  1
  H  H121  1  0.56760000  0.51330000  0.76890000  1
  H  H122  1  0.56760000  0.25560000  0.48670000  1
  H  H123  1  0.58240000  0.33610000  0.73250000  1
  H  H124  1  0.58240000  0.26750000  0.60360000  1
  H  H125  1  0.58240000  0.39640000  0.66390000  1
  H  H126  1  0.62880000  0.39000000  0.26600000  1
  H  H127  1  0.62880000  0.87600000  0.61000000  1
  H  H128  1  0.62880000  0.73400000  0.12400000  1
  H  H129  1  0.63110000  0.54920000  0.31680000  1
  H  H130  1  0.63110000  0.76760000  0.45080000  1
  H  H131  1  0.63110000  0.68320000  0.23240000  1
  H  H132  1  0.63240000  0.72560000  0.57780000  1
  H  H133  1  0.63240000  0.42220000  0.14780000  1
  H  H134  1  0.63240000  0.85220000  0.27440000  1
  H  H135  1  0.63290000  0.47560000  0.40100000  1
  H  H136  1  0.63290000  0.92540000  0.52440000  1
  H  H137  1  0.63290000  0.59900000  0.07460000  1
  H  H138  1  0.63400000  0.51990000  0.36000000  1
  H  H139  1  0.63400000  0.84010000  0.48010000  1
  H  H140  1  0.63400000  0.64000000  0.15990000  1
  H  H141  1  0.64530000  0.59470000  0.59140000  1
  H  H142  1  0.64530000  0.40860000  0.00330000  1
  H  H143  1  0.64530000  0.99670000  0.40530000  1
  H  H144  1  0.65300000  0.67690000  0.61600000  1
  H  H145  1  0.65300000  0.38400000  0.06090000  1
  H  H146  1  0.65300000  0.93910000  0.32310000  1
  H  H147  1  0.65320000  0.63290000  0.45060000  1
  H  H148  1  0.65320000  0.54940000  0.18230000  1
  H  H149  1  0.65320000  0.81770000  0.36710000  1
  H  H150  1  0.75000000  0.42820000  0.25930000  1
  H  H151  1  0.75000000  0.64320000  0.40790000  1
  H  H152  1  0.75000000  0.83110000  0.57180000  1
  H  H153  1  0.75000000  0.59210000  0.23530000  1
  H  H154  1  0.75000000  0.76470000  0.35680000  1
  H  H155  1  0.75000000  0.74070000  0.16890000  1
  H  H156  1  0.84680000  0.63290000  0.45060000  1
  H  H157  1  0.84680000  0.54940000  0.18230000  1
  H  H158  1  0.84680000  0.81770000  0.36710000  1
  H  H159  1  0.84700000  0.67690000  0.61600000  1
  H  H160  1  0.84700000  0.38400000  0.06090000  1
  H  H161  1  0.84700000  0.93910000  0.32310000  1
  H  H162  1  0.85470000  0.59470000  0.59140000  1
  H  H163  1  0.85470000  0.40860000  0.00330000  1
  H  H164  1  0.85470000  0.99670000  0.40530000  1
  H  H165  1  0.86600000  0.51990000  0.36000000  1
  H  H166  1  0.86600000  0.84010000  0.48010000  1
  H  H167  1  0.86600000  0.64000000  0.15990000  1
  H  H168  1  0.86710000  0.47560000  0.40100000  1
  H  H169  1  0.86710000  0.92540000  0.52440000  1
  H  H170  1  0.86710000  0.59900000  0.07460000  1
  H  H171  1  0.86760000  0.72560000  0.57780000  1
  H  H172  1  0.86760000  0.42220000  0.14780000  1
  H  H173  1  0.86760000  0.85220000  0.27440000  1
  H  H174  1  0.86890000  0.54920000  0.31680000  1
  H  H175  1  0.86890000  0.76760000  0.45080000  1
  H  H176  1  0.86890000  0.68320000  0.23240000  1
  H  H177  1  0.87120000  0.39000000  0.26600000  1
  H  H178  1  0.87120000  0.87600000  0.61000000  1
  H  H179  1  0.87120000  0.73400000  0.12400000  1
  H  H180  1  0.91760000  0.33610000  0.73250000  1
  H  H181  1  0.91760000  0.26750000  0.60360000  1
  H  H182  1  0.91760000  0.39640000  0.66390000  1
  H  H183  1  0.93240000  0.23110000  0.74440000  1
  H  H184  1  0.93240000  0.51330000  0.76890000  1
  H  H185  1  0.93240000  0.25560000  0.48670000  1
  H  H186  1  0.95310000  0.73960000  0.53110000  1
  H  H187  1  0.95310000  0.46890000  0.20850000  1
  H  H188  1  0.95310000  0.79150000  0.26040000  1
  H  H189  1  0.95750000  0.58940000  0.44630000  1
  H  H190  1  0.95750000  0.55370000  0.14310000  1
  H  H191  1  0.95750000  0.85690000  0.41060000  1
  H  H192  1  0.96970000  0.59960000  0.30690000  1
  H  H193  1  0.96970000  0.70730000  0.40040000  1
  H  H194  1  0.96970000  0.69310000  0.29270000  1
  H  H195  1  0.97840000  0.41240000  0.31720000  1
  H  H196  1  0.97840000  0.90480000  0.58760000  1
  H  H197  1  0.97840000  0.68280000  0.09520000  1
  C  C198  1  0.02580000  0.12840000  0.70570000  1
  C  C199  1  0.02580000  0.57730000  0.87160000  1
  C  C200  1  0.02580000  0.29430000  0.42270000  1
  C  C201  1  0.02760000  0.46780000  0.25830000  1
  C  C202  1  0.02760000  0.79050000  0.53220000  1
  C  C203  1  0.02760000  0.74170000  0.20950000  1
  C  C204  1  0.03200000  0.62050000  0.41990000  1
  C  C205  1  0.03200000  0.58010000  0.20060000  1
  C  C206  1  0.03200000  0.79940000  0.37950000  1
  C  C207  1  0.03250000  0.31670000  0.72610000  1
  C  C208  1  0.03250000  0.27390000  0.59060000  1
  C  C209  1  0.03250000  0.40940000  0.68330000  1
  C  C210  1  0.03470000  0.65730000  0.40690000  1
  C  C211  1  0.03470000  0.59310000  0.25040000  1
  C  C212  1  0.03470000  0.74960000  0.34270000  1
  C  C213  1  0.03480000  0.45040000  0.28930000  1
  C  C214  1  0.03480000  0.83890000  0.54960000  1
  C  C215  1  0.03480000  0.71070000  0.16110000  1
  C  C216  1  0.03950000  0.38720000  0.82380000  1
  C  C217  1  0.03950000  0.17620000  0.56340000  1
  C  C218  1  0.03950000  0.43660000  0.61280000  1
  C  C219  1  0.04190000  0.22690000  0.76990000  1
  C  C220  1  0.04190000  0.54300000  0.77310000  1
  C  C221  1  0.04190000  0.23010000  0.45700000  1
  C  C222  1  0.09140000  0.14640000  0.73530000  1
  C  C223  1  0.09140000  0.58890000  0.85360000  1
  C  C224  1  0.09140000  0.26470000  0.41110000  1
  C  C225  1  0.10170000  0.59170000  0.41700000  1
  C  C226  1  0.10170000  0.58300000  0.17470000  1
  C  C227  1  0.10170000  0.82530000  0.40830000  1
  C  C228  1  0.10210000  0.46790000  0.32310000  1
  C  C229  1  0.10210000  0.85520000  0.53210000  1
  C  C230  1  0.10210000  0.67690000  0.14480000  1
  C  C231  1  0.10420000  0.32630000  0.75190000  1
  C  C232  1  0.10420000  0.24810000  0.57440000  1
  C  C233  1  0.10420000  0.42560000  0.67370000  1
  C  C234  1  0.10530000  0.19540000  0.76680000  1
  C  C235  1  0.10530000  0.57140000  0.80460000  1
  C  C236  1  0.10530000  0.23320000  0.42860000  1
  C  C237  1  0.10600000  0.36100000  0.80030000  1
  C  C238  1  0.10600000  0.19970000  0.56070000  1
  C  C239  1  0.10600000  0.43930000  0.63900000  1
  C  C240  1  0.17860000  0.29990000  0.72880000  1
  C  C241  1  0.17860000  0.27120000  0.57110000  1
  C  C242  1  0.17860000  0.42890000  0.70010000  1
  C  C243  1  0.17870000  0.21630000  0.79340000  1
  C  C244  1  0.17870000  0.20660000  0.42290000  1
  C  C245  1  0.17870000  0.57710000  0.78370000  1
  C  C246  1  0.17890000  0.24900000  0.69460000  1
  C  C247  1  0.17890000  0.44560000  0.75100000  1
  C  C248  1  0.17890000  0.30540000  0.55440000  1
  C  C249  1  0.18020000  0.25970000  0.83740000  1
  C  C250  1  0.18020000  0.16260000  0.42230000  1
  C  C251  1  0.18020000  0.57770000  0.74030000  1
  C  C252  1  0.18080000  0.09160000  0.60790000  1
  C  C253  1  0.18080000  0.51630000  0.90840000  1
  C  C254  1  0.18080000  0.39210000  0.48370000  1
  C  C255  1  0.18220000  0.14330000  0.63290000  1
  C  C256  1  0.18220000  0.48960000  0.85670000  1
  C  C257  1  0.18220000  0.36710000  0.51040000  1
  C  C258  1  0.18990000  0.39410000  0.97670000  1
  C  C259  1  0.18990000  0.02330000  0.41740000  1
  C  C260  1  0.18990000  0.58260000  0.60590000  1
  C  C261  1  0.19110000  0.34510000  0.94020000  1
  C  C262  1  0.19110000  0.05980000  0.40490000  1
  C  C263  1  0.19110000  0.59510000  0.65490000  1
  C  C264  1  0.25000000  0.54690000  0.52370000  1
  C  C265  1  0.25000000  0.28230000  0.86010000  1
  C  C266  1  0.25000000  0.33040000  0.90620000  1
  C  C267  1  0.25000000  0.19680000  0.77170000  1
  C  C268  1  0.25000000  0.01310000  0.57220000  1
  C  C269  1  0.25000000  0.42760000  0.98560000  1
  C  C270  1  0.25000000  0.47630000  0.02320000  1
  C  C271  1  0.25000000  0.06760000  0.59730000  1
  C  C272  1  0.25000000  0.17030000  0.64730000  1
  C  C273  1  0.25000000  0.97680000  0.45310000  1
  C  C274  1  0.25000000  0.22360000  0.67800000  1
  C  C275  1  0.25000000  0.55910000  0.98690000  1
  C  C276  1  0.25000000  0.01440000  0.44200000  1
  C  C277  1  0.25000000  0.32300000  0.74340000  1
  C  C278  1  0.25000000  0.52970000  0.93240000  1
  C  C279  1  0.25000000  0.47700000  0.82970000  1
  C  C280  1  0.25000000  0.09380000  0.42420000  1
  C  C281  1  0.25000000  0.25660000  0.57960000  1
  C  C282  1  0.25000000  0.45440000  0.77640000  1
  C  C283  1  0.25000000  0.13990000  0.42220000  1
  C  C284  1  0.25000000  0.42040000  0.67700000  1
  C  C285  1  0.25000000  0.57490000  0.80320000  1
  C  C286  1  0.25000000  0.32200000  0.54560000  1
  C  C287  1  0.25000000  0.22830000  0.42510000  1
  C  C288  1  0.25000000  0.35270000  0.52300000  1
  C  C289  1  0.25000000  0.57780000  0.71770000  1
  C  C290  1  0.25000000  0.57580000  0.66960000  1
  C  C291  1  0.25000000  0.40270000  0.47030000  1
  C  C292  1  0.25000000  0.55800000  0.57240000  1
  C  C293  1  0.25000000  0.42780000  0.44090000  1
  C  C294  1  0.30890000  0.34510000  0.94020000  1
  C  C295  1  0.30890000  0.05980000  0.40490000  1
  C  C296  1  0.30890000  0.59510000  0.65490000  1
  C  C297  1  0.31010000  0.39410000  0.97670000  1
  C  C298  1  0.31010000  0.02330000  0.41740000  1
  C  C299  1  0.31010000  0.58260000  0.60590000  1
  C  C300  1  0.31780000  0.14330000  0.63290000  1
  C  C301  1  0.31780000  0.48960000  0.85670000  1
  C  C302  1  0.31780000  0.36710000  0.51040000  1
  C  C303  1  0.31920000  0.09160000  0.60790000  1
  C  C304  1  0.31920000  0.51630000  0.90840000  1
  C  C305  1  0.31920000  0.39210000  0.48370000  1
  C  C306  1  0.31980000  0.25970000  0.83740000  1
  C  C307  1  0.31980000  0.16260000  0.42230000  1
  C  C308  1  0.31980000  0.57770000  0.74030000  1
  C  C309  1  0.32110000  0.24900000  0.69460000  1
  C  C310  1  0.32110000  0.44560000  0.75100000  1
  C  C311  1  0.32110000  0.30540000  0.55440000  1
  C  C312  1  0.32130000  0.21630000  0.79340000  1
  C  C313  1  0.32130000  0.20660000  0.42290000  1
  C  C314  1  0.32130000  0.57710000  0.78370000  1
  C  C315  1  0.32140000  0.29990000  0.72880000  1
  C  C316  1  0.32140000  0.27120000  0.57110000  1
  C  C317  1  0.32140000  0.42890000  0.70010000  1
  C  C318  1  0.39400000  0.36100000  0.80030000  1
  C  C319  1  0.39400000  0.19970000  0.56070000  1
  C  C320  1  0.39400000  0.43930000  0.63900000  1
  C  C321  1  0.39470000  0.19540000  0.76680000  1
  C  C322  1  0.39470000  0.57140000  0.80460000  1
  C  C323  1  0.39470000  0.23320000  0.42860000  1
  C  C324  1  0.39580000  0.32630000  0.75190000  1
  C  C325  1  0.39580000  0.24810000  0.57440000  1
  C  C326  1  0.39580000  0.42560000  0.67370000  1
  C  C327  1  0.39790000  0.46790000  0.32310000  1
  C  C328  1  0.39790000  0.85520000  0.53210000  1
  C  C329  1  0.39790000  0.67690000  0.14480000  1
  C  C330  1  0.39830000  0.59170000  0.41700000  1
  C  C331  1  0.39830000  0.58300000  0.17470000  1
  C  C332  1  0.39830000  0.82530000  0.40830000  1
  C  C333  1  0.40860000  0.14640000  0.73530000  1
  C  C334  1  0.40860000  0.58890000  0.85360000  1
  C  C335  1  0.40860000  0.26470000  0.41110000  1
  C  C336  1  0.45810000  0.22690000  0.76990000  1
  C  C337  1  0.45810000  0.54300000  0.77310000  1
  C  C338  1  0.45810000  0.23010000  0.45700000  1
  C  C339  1  0.46050000  0.38720000  0.82380000  1
  C  C340  1  0.46050000  0.17620000  0.56340000  1
  C  C341  1  0.46050000  0.43660000  0.61280000  1
  C  C342  1  0.46520000  0.45040000  0.28930000  1
  C  C343  1  0.46520000  0.83890000  0.54960000  1
  C  C344  1  0.46520000  0.71070000  0.16110000  1
  C  C345  1  0.46530000  0.65730000  0.40690000  1
  C  C346  1  0.46530000  0.59310000  0.25040000  1
  C  C347  1  0.46530000  0.74960000  0.34270000  1
  C  C348  1  0.46750000  0.31670000  0.72610000  1
  C  C349  1  0.46750000  0.27390000  0.59060000  1
  C  C350  1  0.46750000  0.40940000  0.68330000  1
  C  C351  1  0.46800000  0.62050000  0.41990000  1
  C  C352  1  0.46800000  0.58010000  0.20060000  1
  C  C353  1  0.46800000  0.79940000  0.37950000  1
  C  C354  1  0.47240000  0.46780000  0.25830000  1
  C  C355  1  0.47240000  0.79050000  0.53220000  1
  C  C356  1  0.47240000  0.74170000  0.20950000  1
  C  C357  1  0.47420000  0.12840000  0.70570000  1
  C  C358  1  0.47420000  0.57730000  0.87160000  1
  C  C359  1  0.47420000  0.29430000  0.42270000  1
  C  C360  1  0.52580000  0.42270000  0.29430000  1
  C  C361  1  0.52580000  0.87160000  0.57730000  1
  C  C362  1  0.52580000  0.70570000  0.12840000  1
  C  C363  1  0.52760000  0.20950000  0.74170000  1
  C  C364  1  0.52760000  0.53220000  0.79050000  1
  C  C365  1  0.52760000  0.25830000  0.46780000  1
  C  C366  1  0.53200000  0.37950000  0.79940000  1
  C  C367  1  0.53200000  0.20060000  0.58010000  1
  C  C368  1  0.53200000  0.41990000  0.62050000  1
  C  C369  1  0.53250000  0.68330000  0.40940000  1
  C  C370  1  0.53250000  0.59060000  0.27390000  1
  C  C371  1  0.53250000  0.72610000  0.31670000  1
  C  C372  1  0.53470000  0.34270000  0.74960000  1
  C  C373  1  0.53470000  0.25040000  0.59310000  1
  C  C374  1  0.53470000  0.40690000  0.65730000  1
  C  C375  1  0.53480000  0.16110000  0.71070000  1
  C  C376  1  0.53480000  0.54960000  0.83890000  1
  C  C377  1  0.53480000  0.28930000  0.45040000  1
  C  C378  1  0.53950000  0.61280000  0.43660000  1
  C  C379  1  0.53950000  0.56340000  0.17620000  1
  C  C380  1  0.53950000  0.82380000  0.38720000  1
  C  C381  1  0.54190000  0.45700000  0.23010000  1
  C  C382  1  0.54190000  0.77310000  0.54300000  1
  C  C383  1  0.54190000  0.76990000  0.22690000  1
  C  C384  1  0.59140000  0.41110000  0.26470000  1
  C  C385  1  0.59140000  0.85360000  0.58890000  1
  C  C386  1  0.59140000  0.73530000  0.14640000  1
  C  C387  1  0.60170000  0.40830000  0.82530000  1
  C  C388  1  0.60170000  0.17470000  0.58300000  1
  C  C389  1  0.60170000  0.41700000  0.59170000  1
  C  C390  1  0.60210000  0.14480000  0.67690000  1
  C  C391  1  0.60210000  0.53210000  0.85520000  1
  C  C392  1  0.60210000  0.32310000  0.46790000  1
  C  C393  1  0.60420000  0.67370000  0.42560000  1
  C  C394  1  0.60420000  0.57440000  0.24810000  1
  C  C395  1  0.60420000  0.75190000  0.32630000  1
  C  C396  1  0.60530000  0.42860000  0.23320000  1
  C  C397  1  0.60530000  0.80460000  0.57140000  1
  C  C398  1  0.60530000  0.76680000  0.19540000  1
  C  C399  1  0.60600000  0.63900000  0.43930000  1
  C  C400  1  0.60600000  0.56070000  0.19970000  1
  C  C401  1  0.60600000  0.80030000  0.36100000  1
  C  C402  1  0.67860000  0.70010000  0.42890000  1
  C  C403  1  0.67860000  0.57110000  0.27120000  1
  C  C404  1  0.67860000  0.72880000  0.29990000  1
  C  C405  1  0.67870000  0.78370000  0.57710000  1
  C  C406  1  0.67870000  0.42290000  0.20660000  1
  C  C407  1  0.67870000  0.79340000  0.21630000  1
  C  C408  1  0.67890000  0.55440000  0.30540000  1
  C  C409  1  0.67890000  0.75100000  0.44560000  1
  C  C410  1  0.67890000  0.69460000  0.24900000  1
  C  C411  1  0.68020000  0.74030000  0.57770000  1
  C  C412  1  0.68020000  0.42230000  0.16260000  1
  C  C413  1  0.68020000  0.83740000  0.25970000  1
  C  C414  1  0.68080000  0.48370000  0.39210000  1
  C  C415  1  0.68080000  0.90840000  0.51630000  1
  C  C416  1  0.68080000  0.60790000  0.09160000  1
  C  C417  1  0.68220000  0.51040000  0.36710000  1
  C  C418  1  0.68220000  0.85670000  0.48960000  1
  C  C419  1  0.68220000  0.63290000  0.14330000  1
  C  C420  1  0.68990000  0.60590000  0.58260000  1
  C  C421  1  0.68990000  0.41740000  0.02330000  1
  C  C422  1  0.68990000  0.97670000  0.39410000  1
  C  C423  1  0.69110000  0.65490000  0.59510000  1
  C  C424  1  0.69110000  0.40490000  0.05980000  1
  C  C425  1  0.69110000  0.94020000  0.34510000  1
  C  C426  1  0.75000000  0.44090000  0.42780000  1
  C  C427  1  0.75000000  0.57240000  0.55800000  1
  C  C428  1  0.75000000  0.47030000  0.40270000  1
  C  C429  1  0.75000000  0.66960000  0.57580000  1
  C  C430  1  0.75000000  0.71770000  0.57780000  1
  C  C431  1  0.75000000  0.52300000  0.35270000  1
  C  C432  1  0.75000000  0.42510000  0.22830000  1
  C  C433  1  0.75000000  0.54560000  0.32200000  1
  C  C434  1  0.75000000  0.80320000  0.57490000  1
  C  C435  1  0.75000000  0.67700000  0.42040000  1
  C  C436  1  0.75000000  0.42220000  0.13990000  1
  C  C437  1  0.75000000  0.77640000  0.45440000  1
  C  C438  1  0.75000000  0.57960000  0.25660000  1
  C  C439  1  0.75000000  0.42420000  0.09380000  1
  C  C440  1  0.75000000  0.82970000  0.47700000  1
  C  C441  1  0.75000000  0.93240000  0.52970000  1
  C  C442  1  0.75000000  0.74340000  0.32300000  1
  C  C443  1  0.75000000  0.44200000  0.01440000  1
  C  C444  1  0.75000000  0.98690000  0.55910000  1
  C  C445  1  0.75000000  0.67800000  0.22360000  1
  C  C446  1  0.75000000  0.45310000  0.97680000  1
  C  C447  1  0.75000000  0.64730000  0.17030000  1
  C  C448  1  0.75000000  0.59730000  0.06760000  1
  C  C449  1  0.75000000  0.02320000  0.47630000  1
  C  C450  1  0.75000000  0.98560000  0.42760000  1
  C  C451  1  0.75000000  0.57220000  0.01310000  1
  C  C452  1  0.75000000  0.77170000  0.19680000  1
  C  C453  1  0.75000000  0.90620000  0.33040000  1
  C  C454  1  0.75000000  0.86010000  0.28230000  1
  C  C455  1  0.75000000  0.52370000  0.54690000  1
  C  C456  1  0.80890000  0.65490000  0.59510000  1
  C  C457  1  0.80890000  0.40490000  0.05980000  1
  C  C458  1  0.80890000  0.94020000  0.34510000  1
  C  C459  1  0.81010000  0.60590000  0.58260000  1
  C  C460  1  0.81010000  0.41740000  0.02330000  1
  C  C461  1  0.81010000  0.97670000  0.39410000  1
  C  C462  1  0.81780000  0.51040000  0.36710000  1
  C  C463  1  0.81780000  0.85670000  0.48960000  1
  C  C464  1  0.81780000  0.63290000  0.14330000  1
  C  C465  1  0.81920000  0.48370000  0.39210000  1
  C  C466  1  0.81920000  0.90840000  0.51630000  1
  C  C467  1  0.81920000  0.60790000  0.09160000  1
  C  C468  1  0.81980000  0.74030000  0.57770000  1
  C  C469  1  0.81980000  0.42230000  0.16260000  1
  C  C470  1  0.81980000  0.83740000  0.25970000  1
  C  C471  1  0.82110000  0.55440000  0.30540000  1
  C  C472  1  0.82110000  0.75100000  0.44560000  1
  C  C473  1  0.82110000  0.69460000  0.24900000  1
  C  C474  1  0.82130000  0.78370000  0.57710000  1
  C  C475  1  0.82130000  0.42290000  0.20660000  1
  C  C476  1  0.82130000  0.79340000  0.21630000  1
  C  C477  1  0.82140000  0.70010000  0.42890000  1
  C  C478  1  0.82140000  0.57110000  0.27120000  1
  C  C479  1  0.82140000  0.72880000  0.29990000  1
  C  C480  1  0.89400000  0.63900000  0.43930000  1
  C  C481  1  0.89400000  0.56070000  0.19970000  1
  C  C482  1  0.89400000  0.80030000  0.36100000  1
  C  C483  1  0.89470000  0.42860000  0.23320000  1
  C  C484  1  0.89470000  0.80460000  0.57140000  1
  C  C485  1  0.89470000  0.76680000  0.19540000  1
  C  C486  1  0.89580000  0.67370000  0.42560000  1
  C  C487  1  0.89580000  0.57440000  0.24810000  1
  C  C488  1  0.89580000  0.75190000  0.32630000  1
  C  C489  1  0.89790000  0.14480000  0.67690000  1
  C  C490  1  0.89790000  0.53210000  0.85520000  1
  C  C491  1  0.89790000  0.32310000  0.46790000  1
  C  C492  1  0.89830000  0.40830000  0.82530000  1
  C  C493  1  0.89830000  0.17470000  0.58300000  1
  C  C494  1  0.89830000  0.41700000  0.59170000  1
  C  C495  1  0.90860000  0.41110000  0.26470000  1
  C  C496  1  0.90860000  0.85360000  0.58890000  1
  C  C497  1  0.90860000  0.73530000  0.14640000  1
  C  C498  1  0.95810000  0.45700000  0.23010000  1
  C  C499  1  0.95810000  0.77310000  0.54300000  1
  C  C500  1  0.95810000  0.76990000  0.22690000  1
  C  C501  1  0.96050000  0.61280000  0.43660000  1
  C  C502  1  0.96050000  0.56340000  0.17620000  1
  C  C503  1  0.96050000  0.82380000  0.38720000  1
  C  C504  1  0.96520000  0.16110000  0.71070000  1
  C  C505  1  0.96520000  0.54960000  0.83890000  1
  C  C506  1  0.96520000  0.28930000  0.45040000  1
  C  C507  1  0.96530000  0.34270000  0.74960000  1
  C  C508  1  0.96530000  0.25040000  0.59310000  1
  C  C509  1  0.96530000  0.40690000  0.65730000  1
  C  C510  1  0.96750000  0.68330000  0.40940000  1
  C  C511  1  0.96750000  0.59060000  0.27390000  1
  C  C512  1  0.96750000  0.72610000  0.31670000  1
  C  C513  1  0.96800000  0.37950000  0.79940000  1
  C  C514  1  0.96800000  0.20060000  0.58010000  1
  C  C515  1  0.96800000  0.41990000  0.62050000  1
  C  C516  1  0.97240000  0.20950000  0.74170000  1
  C  C517  1  0.97240000  0.53220000  0.79050000  1
  C  C518  1  0.97240000  0.25830000  0.46780000  1
  C  C519  1  0.97420000  0.42270000  0.29430000  1
  C  C520  1  0.97420000  0.87160000  0.57730000  1
  C  C521  1  0.97420000  0.70570000  0.12840000  1
  O  O522  1  0.09350000  0.55988000  0.43001000  1
  O  O523  1  0.09350000  0.87013000  0.44012000  1
  O  O524  1  0.09350000  0.56999000  0.12987000  1
  O  O525  1  0.10240000  0.45796000  0.35841000  1
  O  O526  1  0.10240000  0.90045000  0.54204000  1
  O  O527  1  0.10240000  0.64159000  0.09955000  1
  O  O528  1  0.15630000  0.49083000  0.31747000  1
  O  O529  1  0.15630000  0.82664000  0.50917000  1
  O  O530  1  0.15630000  0.68253000  0.17336000  1
  O  O531  1  0.16290000  0.59360000  0.39490000  1
  O  O532  1  0.16290000  0.80130000  0.40640000  1
  O  O533  1  0.16290000  0.60510000  0.19870000  1
  O  O534  1  0.18490000  0.54210000  0.50230000  1
  O  O535  1  0.18490000  0.49770000  0.03980000  1
  O  O536  1  0.18490000  0.96020000  0.45790000  1
  O  O537  1  0.18540000  0.43905000  0.43110000  1
  O  O538  1  0.18540000  0.99205000  0.56095000  1
  O  O539  1  0.18540000  0.56890000  0.00795000  1
  O  O540  1  0.25000000  0.51426000  0.40660000  1
  O  O541  1  0.25000000  0.89234000  0.48574000  1
  O  O542  1  0.25000000  0.59340000  0.10766000  1
  O  O543  1  0.31460000  0.43905000  0.43110000  1
  O  O544  1  0.31460000  0.99205000  0.56095000  1
  O  O545  1  0.31460000  0.56890000  0.00795000  1
  O  O546  1  0.31510000  0.54210000  0.50230000  1
  O  O547  1  0.31510000  0.49770000  0.03980000  1
  O  O548  1  0.31510000  0.96020000  0.45790000  1
  O  O549  1  0.33710000  0.59360000  0.39490000  1
  O  O550  1  0.33710000  0.80130000  0.40640000  1
  O  O551  1  0.33710000  0.60510000  0.19870000  1
  O  O552  1  0.34370000  0.49083000  0.31747000  1
  O  O553  1  0.34370000  0.82664000  0.50917000  1
  O  O554  1  0.34370000  0.68253000  0.17336000  1
  O  O555  1  0.39760000  0.45796000  0.35841000  1
  O  O556  1  0.39760000  0.90045000  0.54204000  1
  O  O557  1  0.39760000  0.64159000  0.09955000  1
  O  O558  1  0.40650000  0.55988000  0.43001000  1
  O  O559  1  0.40650000  0.87013000  0.44012000  1
  O  O560  1  0.40650000  0.56999000  0.12987000  1
  O  O561  1  0.59350000  0.12987000  0.56999000  1
  O  O562  1  0.59350000  0.44012000  0.87013000  1
  O  O563  1  0.59350000  0.43001000  0.55988000  1
  O  O564  1  0.60240000  0.09955000  0.64159000  1
  O  O565  1  0.60240000  0.54204000  0.90045000  1
  O  O566  1  0.60240000  0.35841000  0.45796000  1
  O  O567  1  0.65630000  0.17336000  0.68253000  1
  O  O568  1  0.65630000  0.50917000  0.82664000  1
  O  O569  1  0.65630000  0.31747000  0.49083000  1
  O  O570  1  0.66290000  0.19870000  0.60510000  1
  O  O571  1  0.66290000  0.40640000  0.80130000  1
  O  O572  1  0.66290000  0.39490000  0.59360000  1
  O  O573  1  0.68490000  0.45790000  0.96020000  1
  O  O574  1  0.68490000  0.03980000  0.49770000  1
  O  O575  1  0.68490000  0.50230000  0.54210000  1
  O  O576  1  0.68540000  0.00795000  0.56890000  1
  O  O577  1  0.68540000  0.56095000  0.99205000  1
  O  O578  1  0.68540000  0.43110000  0.43905000  1
  O  O579  1  0.75000000  0.10766000  0.59340000  1
  O  O580  1  0.75000000  0.48574000  0.89234000  1
  O  O581  1  0.75000000  0.40660000  0.51426000  1
  O  O582  1  0.81460000  0.00795000  0.56890000  1
  O  O583  1  0.81460000  0.56095000  0.99205000  1
  O  O584  1  0.81460000  0.43110000  0.43905000  1
  O  O585  1  0.81510000  0.45790000  0.96020000  1
  O  O586  1  0.81510000  0.03980000  0.49770000  1
  O  O587  1  0.81510000  0.50230000  0.54210000  1
  O  O588  1  0.83710000  0.19870000  0.60510000  1
  O  O589  1  0.83710000  0.40640000  0.80130000  1
  O  O590  1  0.83710000  0.39490000  0.59360000  1
  O  O591  1  0.84370000  0.17336000  0.68253000  1
  O  O592  1  0.84370000  0.50917000  0.82664000  1
  O  O593  1  0.84370000  0.31747000  0.49083000  1
  O  O594  1  0.89760000  0.09955000  0.64159000  1
  O  O595  1  0.89760000  0.54204000  0.90045000  1
  O  O596  1  0.89760000  0.35841000  0.45796000  1
  O  O597  1  0.90650000  0.12987000  0.56999000  1
  O  O598  1  0.90650000  0.44012000  0.87013000  1
  O  O599  1  0.90650000  0.43001000  0.55988000  1
