# generated using pymatgen
data_CdN9
_symmetry_space_group_name_H-M   'P 1'
_cell_length_a   8.60610000
_cell_length_b   9.36560000
_cell_length_c   13.01600000
_cell_angle_alpha   90.00000000
_cell_angle_beta   105.80300000
_cell_angle_gamma   90.00000000
_symmetry_Int_Tables_number   1
_chemical_formula_structural   CdN9
_chemical_formula_sum   'Cd4 N36'
_cell_volume   1009.45409017
_cell_formula_units_Z   4
loop_
 _symmetry_equiv_pos_site_id
 _symmetry_equiv_pos_as_xyz
  1  'x, y, z'
loop_
 _atom_site_type_symbol
 _atom_site_label
 _atom_site_symmetry_multiplicity
 _atom_site_fract_x
 _atom_site_fract_y
 _atom_site_fract_z
 _atom_site_occupancy
  Cd  Cd0  1  0.24515000  0.24840000  0.49082000  1
  Cd  Cd1  1  0.24515000  0.25160000  0.99082000  1
  Cd  Cd2  1  0.75485000  0.74840000  0.00918000  1
  Cd  Cd3  1  0.75485000  0.75160000  0.50918000  1
  N  N4  1  0.00000000  0.00000000  0.00000000  1
  N  N5  1  0.00000000  0.00000000  0.50000000  1
  N  N6  1  0.00000000  0.50000000  0.00000000  1
  N  N7  1  0.00000000  0.50000000  0.50000000  1
  N  N8  1  0.01220000  0.12470000  0.99630000  1
  N  N9  1  0.01220000  0.37530000  0.49630000  1
  N  N10  1  0.07190000  0.05140000  0.44390000  1
  N  N11  1  0.07190000  0.44860000  0.94390000  1
  N  N12  1  0.16680000  0.19740000  0.80690000  1
  N  N13  1  0.16680000  0.30260000  0.30690000  1
  N  N14  1  0.23240000  0.19470000  0.73929000  1
  N  N15  1  0.23240000  0.30530000  0.23929000  1
  N  N16  1  0.29690000  0.18580000  0.67150000  1
  N  N17  1  0.29690000  0.31420000  0.17150000  1
  N  N18  1  0.39460000  0.04430000  0.03230000  1
  N  N19  1  0.39460000  0.45570000  0.53230000  1
  N  N20  1  0.46820000  0.12030000  0.47960000  1
  N  N21  1  0.46820000  0.37970000  0.97960000  1
  N  N22  1  0.50000000  0.00000000  0.00000000  1
  N  N23  1  0.50000000  0.00000000  0.50000000  1
  N  N24  1  0.50000000  0.50000000  0.00000000  1
  N  N25  1  0.50000000  0.50000000  0.50000000  1
  N  N26  1  0.53180000  0.62030000  0.02040000  1
  N  N27  1  0.53180000  0.87970000  0.52040000  1
  N  N28  1  0.60540000  0.54430000  0.46770000  1
  N  N29  1  0.60540000  0.95570000  0.96770000  1
  N  N30  1  0.70310000  0.68580000  0.82850000  1
  N  N31  1  0.70310000  0.81420000  0.32850000  1
  N  N32  1  0.76760000  0.69470000  0.76071000  1
  N  N33  1  0.76760000  0.80530000  0.26071000  1
  N  N34  1  0.83320000  0.69740000  0.69310000  1
  N  N35  1  0.83320000  0.80260000  0.19310000  1
  N  N36  1  0.92810000  0.55140000  0.05610000  1
  N  N37  1  0.92810000  0.94860000  0.55610000  1
  N  N38  1  0.98780000  0.62470000  0.50370000  1
  N  N39  1  0.98780000  0.87530000  0.00370000  1
