# generated using pymatgen
data_Cu2H15C24NO8
_symmetry_space_group_name_H-M   'P 1'
_cell_length_a   11.42690000
_cell_length_b   11.42690000
_cell_length_c   18.87310000
_cell_angle_alpha   94.75840000
_cell_angle_beta   94.75840000
_cell_angle_gamma   96.72190000
_symmetry_Int_Tables_number   1
_chemical_formula_structural   Cu2H15C24NO8
_chemical_formula_sum   'Cu4 H30 C48 N2 O16'
_cell_volume   2428.24796864
_cell_formula_units_Z   2
loop_
 _symmetry_equiv_pos_site_id
 _symmetry_equiv_pos_as_xyz
  1  'x, y, z'
loop_
 _atom_site_type_symbol
 _atom_site_label
 _atom_site_symmetry_multiplicity
 _atom_site_fract_x
 _atom_site_fract_y
 _atom_site_fract_z
 _atom_site_occupancy
  Cu  Cu0  1  0.09550000  0.97181000  0.47205000  1
  Cu  Cu1  1  0.02819000  0.90450000  0.02795000  1
  Cu  Cu2  1  0.97181000  0.09550000  0.97205000  1
  Cu  Cu3  1  0.90450000  0.02819000  0.52795000  1
  H  H4  1  0.01640000  0.98360000  0.75000000  1
  H  H5  1  0.64590000  0.95310000  0.85440000  1
  H  H6  1  0.47010000  0.85010000  0.79830000  1
  H  H7  1  0.22940000  0.78500000  0.85830000  1
  H  H8  1  0.21500000  0.77060000  0.64170000  1
  H  H9  1  0.36580000  0.69940000  0.65150000  1
  H  H10  1  0.67580000  0.69420000  0.46930000  1
  H  H11  1  0.69420000  0.67580000  0.96930000  1
  H  H12  1  0.95310000  0.64590000  0.35440000  1
  H  H13  1  0.30060000  0.63420000  0.84850000  1
  H  H14  1  0.44930000  0.62510000  0.69750000  1
  H  H15  1  0.51560000  0.57440000  0.91410000  1
  H  H16  1  0.37490000  0.55070000  0.80250000  1
  H  H17  1  0.14990000  0.52990000  0.70170000  1
  H  H18  1  0.57440000  0.51560000  0.41410000  1
  H  H19  1  0.42560000  0.48440000  0.58590000  1
  H  H20  1  0.85010000  0.47010000  0.29830000  1
  H  H21  1  0.62510000  0.44930000  0.19750000  1
  H  H22  1  0.48440000  0.42560000  0.08590000  1
  H  H23  1  0.55070000  0.37490000  0.30250000  1
  H  H24  1  0.69940000  0.36580000  0.15150000  1
  H  H25  1  0.04690000  0.35410000  0.64560000  1
  H  H26  1  0.30580000  0.32420000  0.03070000  1
  H  H27  1  0.32420000  0.30580000  0.53070000  1
  H  H28  1  0.63420000  0.30060000  0.34850000  1
  H  H29  1  0.78500000  0.22940000  0.35830000  1
  H  H30  1  0.77060000  0.21500000  0.14170000  1
  H  H31  1  0.52990000  0.14990000  0.20170000  1
  H  H32  1  0.35410000  0.04690000  0.14560000  1
  H  H33  1  0.98360000  0.01640000  0.25000000  1
  C  C34  1  0.07830000  0.93634000  0.88323000  1
  C  C35  1  0.07203000  0.92797000  0.75000000  1
  C  C36  1  0.06366000  0.92170000  0.61677000  1
  C  C37  1  0.11851000  0.89053000  0.81400000  1
  C  C38  1  0.80273000  0.89041000  0.95008000  1
  C  C39  1  0.10947000  0.88149000  0.68600000  1
  C  C40  1  0.62042000  0.87554000  0.86614000  1
  C  C41  1  0.68865000  0.82393000  0.91647000  1
  C  C42  1  0.51539000  0.81441000  0.83304000  1
  C  C43  1  0.19938000  0.80932000  0.81420000  1
  C  C44  1  0.89041000  0.80273000  0.45008000  1
  C  C45  1  0.19068000  0.80062000  0.68580000  1
  C  C46  1  0.23784000  0.76216000  0.75000000  1
  C  C47  1  0.64896000  0.71148000  0.93448000  1
  C  C48  1  0.47611000  0.70221000  0.85009000  1
  C  C49  1  0.82393000  0.68865000  0.41647000  1
  C  C50  1  0.54266000  0.65096000  0.90146000  1
  C  C51  1  0.71148000  0.64896000  0.43448000  1
  C  C52  1  0.36605000  0.63809000  0.68569000  1
  C  C53  1  0.36191000  0.63395000  0.81431000  1
  C  C54  1  0.87554000  0.62042000  0.36614000  1
  C  C55  1  0.65096000  0.54266000  0.40146000  1
  C  C56  1  0.29779000  0.52389000  0.64991000  1
  C  C57  1  0.81441000  0.51539000  0.33304000  1
  C  C58  1  0.18559000  0.48461000  0.66696000  1
  C  C59  1  0.70221000  0.47611000  0.35009000  1
  C  C60  1  0.34904000  0.45734000  0.59854000  1
  C  C61  1  0.12446000  0.37958000  0.63386000  1
  C  C62  1  0.63809000  0.36605000  0.18569000  1
  C  C63  1  0.63395000  0.36191000  0.31431000  1
  C  C64  1  0.28852000  0.35104000  0.56552000  1
  C  C65  1  0.45734000  0.34904000  0.09854000  1
  C  C66  1  0.17607000  0.31135000  0.58353000  1
  C  C67  1  0.52389000  0.29779000  0.14991000  1
  C  C68  1  0.35104000  0.28852000  0.06552000  1
  C  C69  1  0.76216000  0.23784000  0.25000000  1
  C  C70  1  0.80932000  0.19938000  0.31420000  1
  C  C71  1  0.10959000  0.19727000  0.54992000  1
  C  C72  1  0.80062000  0.19068000  0.18580000  1
  C  C73  1  0.48461000  0.18559000  0.16696000  1
  C  C74  1  0.31135000  0.17607000  0.08353000  1
  C  C75  1  0.37958000  0.12446000  0.13386000  1
  C  C76  1  0.89053000  0.11851000  0.31400000  1
  C  C77  1  0.19727000  0.10959000  0.04992000  1
  C  C78  1  0.88149000  0.10947000  0.18600000  1
  C  C79  1  0.93634000  0.07830000  0.38323000  1
  C  C80  1  0.92797000  0.07203000  0.25000000  1
  C  C81  1  0.92170000  0.06366000  0.11677000  1
  N  N82  1  0.31860000  0.68140000  0.75000000  1
  N  N83  1  0.68140000  0.31860000  0.25000000  1
  O  O84  1  0.82368000  0.99684000  0.93865000  1
  O  O85  1  0.96285000  0.96631000  0.11469000  1
  O  O86  1  0.96631000  0.96285000  0.61469000  1
  O  O87  1  0.12765000  0.91231000  0.56597000  1
  O  O88  1  0.08769000  0.87235000  0.93403000  1
  O  O89  1  0.83317000  0.86915000  0.48740000  1
  O  O90  1  0.86915000  0.83317000  0.98740000  1
  O  O91  1  0.99684000  0.82368000  0.43865000  1
  O  O92  1  0.00316000  0.17632000  0.56135000  1
  O  O93  1  0.13085000  0.16683000  0.01260000  1
  O  O94  1  0.16683000  0.13085000  0.51260000  1
  O  O95  1  0.91231000  0.12765000  0.06597000  1
  O  O96  1  0.87235000  0.08769000  0.43403000  1
  O  O97  1  0.03369000  0.03715000  0.38531000  1
  O  O98  1  0.03715000  0.03369000  0.88531000  1
  O  O99  1  0.17632000  0.00316000  0.06135000  1
