# generated using pymatgen
data_FeH26C25S2(NO)4
_symmetry_space_group_name_H-M   'P 1'
_cell_length_a   12.14700000
_cell_length_b   12.14700000
_cell_length_c   24.74400000
_cell_angle_alpha   90.00000000
_cell_angle_beta   90.00000000
_cell_angle_gamma   90.00000000
_symmetry_Int_Tables_number   1
_chemical_formula_structural   FeH26C25S2(NO)4
_chemical_formula_sum   'Fe4 H104 C100 S8 N16 O16'
_cell_volume   3650.96752510
_cell_formula_units_Z   4
loop_
 _symmetry_equiv_pos_site_id
 _symmetry_equiv_pos_as_xyz
  1  'x, y, z'
loop_
 _atom_site_type_symbol
 _atom_site_label
 _atom_site_symmetry_multiplicity
 _atom_site_fract_x
 _atom_site_fract_y
 _atom_site_fract_z
 _atom_site_occupancy
  Fe  Fe0  1  0.25000000  0.25000000  0.07888000  1
  Fe  Fe1  1  0.25000000  0.25000000  0.42112000  1
  Fe  Fe2  1  0.75000000  0.75000000  0.57888000  1
  Fe  Fe3  1  0.75000000  0.75000000  0.92112000  1
  H  H4  1  0.00740000  0.44430000  0.56460000  1
  H  H5  1  0.01740000  0.13960000  0.25450000  1
  H  H6  1  0.03070000  0.37470000  0.08290000  1
  H  H7  1  0.03650000  0.87890000  0.43660000  1
  H  H8  1  0.05570000  0.00740000  0.93540000  1
  H  H9  1  0.06710000  0.93100000  0.18540000  1
  H  H10  1  0.06900000  0.41560000  0.37630000  1
  H  H11  1  0.06900000  0.56710000  0.68540000  1
  H  H12  1  0.07560000  0.13010000  0.00510000  1
  H  H13  1  0.08440000  0.06900000  0.12370000  1
  H  H14  1  0.08900000  0.80260000  0.81680000  1
  H  H15  1  0.08960000  0.11180000  0.49480000  1
  H  H16  1  0.09920000  0.82560000  0.34190000  1
  H  H17  1  0.11180000  0.41040000  0.00520000  1
  H  H18  1  0.12110000  0.53650000  0.93660000  1
  H  H19  1  0.12530000  0.03070000  0.41710000  1
  H  H20  1  0.12870000  0.35060000  0.17970000  1
  H  H21  1  0.13010000  0.42440000  0.49490000  1
  H  H22  1  0.13960000  0.48260000  0.24550000  1
  H  H23  1  0.14510000  0.67040000  0.27440000  1
  H  H24  1  0.14940000  0.12870000  0.32030000  1
  H  H25  1  0.15900000  0.68120000  0.89050000  1
  H  H26  1  0.17040000  0.85490000  0.77440000  1
  H  H27  1  0.17440000  0.59920000  0.84190000  1
  H  H28  1  0.18120000  0.84100000  0.39050000  1
  H  H29  1  0.19740000  0.58900000  0.31680000  1
  H  H30  1  0.30260000  0.91100000  0.31680000  1
  H  H31  1  0.31880000  0.65900000  0.39050000  1
  H  H32  1  0.32560000  0.90080000  0.84190000  1
  H  H33  1  0.32960000  0.64510000  0.77440000  1
  H  H34  1  0.34100000  0.81880000  0.89050000  1
  H  H35  1  0.35060000  0.37130000  0.32030000  1
  H  H36  1  0.35490000  0.82960000  0.27440000  1
  H  H37  1  0.36040000  0.01740000  0.24550000  1
  H  H38  1  0.36990000  0.07560000  0.49490000  1
  H  H39  1  0.37130000  0.14940000  0.17970000  1
  H  H40  1  0.37470000  0.46930000  0.41710000  1
  H  H41  1  0.37890000  0.96350000  0.93660000  1
  H  H42  1  0.38820000  0.08960000  0.00520000  1
  H  H43  1  0.40080000  0.67440000  0.34190000  1
  H  H44  1  0.41040000  0.38820000  0.49480000  1
  H  H45  1  0.41100000  0.69740000  0.81680000  1
  H  H46  1  0.41560000  0.43100000  0.12370000  1
  H  H47  1  0.42440000  0.36990000  0.00510000  1
  H  H48  1  0.43100000  0.08440000  0.37630000  1
  H  H49  1  0.43100000  0.93290000  0.68540000  1
  H  H50  1  0.43290000  0.56900000  0.18540000  1
  H  H51  1  0.44430000  0.49260000  0.93540000  1
  H  H52  1  0.46350000  0.62110000  0.43660000  1
  H  H53  1  0.46930000  0.12530000  0.08290000  1
  H  H54  1  0.48260000  0.36040000  0.25450000  1
  H  H55  1  0.49260000  0.05570000  0.56460000  1
  H  H56  1  0.50740000  0.94430000  0.43540000  1
  H  H57  1  0.51740000  0.63960000  0.74550000  1
  H  H58  1  0.53070000  0.87470000  0.91710000  1
  H  H59  1  0.53650000  0.37890000  0.56340000  1
  H  H60  1  0.55570000  0.50740000  0.06460000  1
  H  H61  1  0.56710000  0.43100000  0.81460000  1
  H  H62  1  0.56900000  0.06710000  0.31460000  1
  H  H63  1  0.56900000  0.91560000  0.62370000  1
  H  H64  1  0.57560000  0.63010000  0.99490000  1
  H  H65  1  0.58440000  0.56900000  0.87630000  1
  H  H66  1  0.58900000  0.30260000  0.18320000  1
  H  H67  1  0.58960000  0.61180000  0.50520000  1
  H  H68  1  0.59920000  0.32560000  0.65810000  1
  H  H69  1  0.61180000  0.91040000  0.99480000  1
  H  H70  1  0.62110000  0.03650000  0.06340000  1
  H  H71  1  0.62530000  0.53070000  0.58290000  1
  H  H72  1  0.62870000  0.85060000  0.82030000  1
  H  H73  1  0.63010000  0.92440000  0.50510000  1
  H  H74  1  0.63960000  0.98260000  0.75450000  1
  H  H75  1  0.64510000  0.17040000  0.72560000  1
  H  H76  1  0.64940000  0.62870000  0.67970000  1
  H  H77  1  0.65900000  0.18120000  0.10950000  1
  H  H78  1  0.67040000  0.35490000  0.22560000  1
  H  H79  1  0.67440000  0.09920000  0.15810000  1
  H  H80  1  0.68120000  0.34100000  0.60950000  1
  H  H81  1  0.69740000  0.08900000  0.68320000  1
  H  H82  1  0.80260000  0.41100000  0.68320000  1
  H  H83  1  0.81880000  0.15900000  0.60950000  1
  H  H84  1  0.82560000  0.40080000  0.15810000  1
  H  H85  1  0.82960000  0.14510000  0.22560000  1
  H  H86  1  0.84100000  0.31880000  0.10950000  1
  H  H87  1  0.85060000  0.87130000  0.67970000  1
  H  H88  1  0.85490000  0.32960000  0.72560000  1
  H  H89  1  0.86040000  0.51740000  0.75450000  1
  H  H90  1  0.86990000  0.57560000  0.50510000  1
  H  H91  1  0.87130000  0.64940000  0.82030000  1
  H  H92  1  0.87470000  0.96930000  0.58290000  1
  H  H93  1  0.87890000  0.46350000  0.06340000  1
  H  H94  1  0.88820000  0.58960000  0.99480000  1
  H  H95  1  0.90080000  0.17440000  0.65810000  1
  H  H96  1  0.91040000  0.88820000  0.50520000  1
  H  H97  1  0.91100000  0.19740000  0.18320000  1
  H  H98  1  0.91560000  0.93100000  0.87630000  1
  H  H99  1  0.92440000  0.86990000  0.99490000  1
  H  H100  1  0.93100000  0.43290000  0.31460000  1
  H  H101  1  0.93100000  0.58440000  0.62370000  1
  H  H102  1  0.93290000  0.06900000  0.81460000  1
  H  H103  1  0.94430000  0.99260000  0.06460000  1
  H  H104  1  0.96350000  0.12110000  0.56340000  1
  H  H105  1  0.96930000  0.62530000  0.91710000  1
  H  H106  1  0.98260000  0.86040000  0.74550000  1
  H  H107  1  0.99260000  0.55570000  0.43540000  1
  C  C108  1  0.00500000  0.81470000  0.45000000  1
  C  C109  1  0.02070000  0.37470000  0.55041000  1
  C  C110  1  0.02460000  0.19600000  0.27972000  1
  C  C111  1  0.02570000  0.63030000  0.68486000  1
  C  C112  1  0.03360000  0.71450000  0.42923000  1
  C  C113  1  0.04400000  0.71480000  0.72170000  1
  C  C114  1  0.05710000  0.35810000  0.35212000  1
  C  C115  1  0.07180000  0.18080000  0.50856000  1
  C  C116  1  0.09580000  0.36180000  0.50859000  1
  C  C117  1  0.10480000  0.19080000  0.31920000  1
  C  C118  1  0.12530000  0.02070000  0.94959000  1
  C  C119  1  0.13030000  0.97430000  0.18486000  1
  C  C120  1  0.13820000  0.09580000  0.99141000  1
  C  C121  1  0.14190000  0.05710000  0.14788000  1
  C  C122  1  0.15220000  0.78810000  0.79388000  1
  C  C123  1  0.15440000  0.78900000  0.36378000  1
  C  C124  1  0.18080000  0.42820000  0.99144000  1
  C  C125  1  0.18530000  0.50500000  0.95000000  1
  C  C126  1  0.19080000  0.39520000  0.18080000  1
  C  C127  1  0.19600000  0.47540000  0.22028000  1
  C  C128  1  0.21100000  0.65440000  0.86378000  1
  C  C129  1  0.21190000  0.65220000  0.29388000  1
  C  C130  1  0.21450000  0.96640000  0.92923000  1
  C  C131  1  0.21480000  0.95600000  0.22170000  1
  C  C132  1  0.25000000  0.75000000  0.32780000  1
  C  C133  1  0.25000000  0.75000000  0.82780000  1
  C  C134  1  0.28520000  0.54400000  0.22170000  1
  C  C135  1  0.28550000  0.53360000  0.92923000  1
  C  C136  1  0.28810000  0.84780000  0.29388000  1
  C  C137  1  0.28900000  0.84560000  0.86378000  1
  C  C138  1  0.30400000  0.02460000  0.22028000  1
  C  C139  1  0.30920000  0.10480000  0.18080000  1
  C  C140  1  0.31470000  0.99500000  0.95000000  1
  C  C141  1  0.31920000  0.07180000  0.99144000  1
  C  C142  1  0.34560000  0.71100000  0.36378000  1
  C  C143  1  0.34780000  0.71190000  0.79388000  1
  C  C144  1  0.35810000  0.44290000  0.14788000  1
  C  C145  1  0.36180000  0.40420000  0.99141000  1
  C  C146  1  0.36970000  0.52570000  0.18486000  1
  C  C147  1  0.37470000  0.47930000  0.94959000  1
  C  C148  1  0.39520000  0.30920000  0.31920000  1
  C  C149  1  0.40420000  0.13820000  0.50859000  1
  C  C150  1  0.42820000  0.31920000  0.50856000  1
  C  C151  1  0.44290000  0.14190000  0.35212000  1
  C  C152  1  0.45600000  0.78520000  0.72170000  1
  C  C153  1  0.46640000  0.78550000  0.42923000  1
  C  C154  1  0.47430000  0.86970000  0.68486000  1
  C  C155  1  0.47540000  0.30400000  0.27972000  1
  C  C156  1  0.47930000  0.12530000  0.55041000  1
  C  C157  1  0.49500000  0.68530000  0.45000000  1
  C  C158  1  0.50500000  0.31470000  0.55000000  1
  C  C159  1  0.52070000  0.87470000  0.44959000  1
  C  C160  1  0.52460000  0.69600000  0.72028000  1
  C  C161  1  0.52570000  0.13030000  0.31514000  1
  C  C162  1  0.53360000  0.21450000  0.57077000  1
  C  C163  1  0.54400000  0.21480000  0.27830000  1
  C  C164  1  0.55710000  0.85810000  0.64788000  1
  C  C165  1  0.57180000  0.68080000  0.49144000  1
  C  C166  1  0.59580000  0.86180000  0.49141000  1
  C  C167  1  0.60480000  0.69080000  0.68080000  1
  C  C168  1  0.62530000  0.52070000  0.05041000  1
  C  C169  1  0.63030000  0.47430000  0.81514000  1
  C  C170  1  0.63820000  0.59580000  0.00859000  1
  C  C171  1  0.64190000  0.55710000  0.85212000  1
  C  C172  1  0.65220000  0.28810000  0.20612000  1
  C  C173  1  0.65440000  0.28900000  0.63622000  1
  C  C174  1  0.68080000  0.92820000  0.00856000  1
  C  C175  1  0.68530000  0.00500000  0.05000000  1
  C  C176  1  0.69080000  0.89520000  0.81920000  1
  C  C177  1  0.69600000  0.97540000  0.77972000  1
  C  C178  1  0.71100000  0.15440000  0.13622000  1
  C  C179  1  0.71190000  0.15220000  0.70612000  1
  C  C180  1  0.71450000  0.46640000  0.07077000  1
  C  C181  1  0.71480000  0.45600000  0.77830000  1
  C  C182  1  0.75000000  0.25000000  0.17220000  1
  C  C183  1  0.75000000  0.25000000  0.67220000  1
  C  C184  1  0.78520000  0.04400000  0.77830000  1
  C  C185  1  0.78550000  0.03360000  0.07077000  1
  C  C186  1  0.78810000  0.34780000  0.70612000  1
  C  C187  1  0.78900000  0.34560000  0.13622000  1
  C  C188  1  0.80400000  0.52460000  0.77972000  1
  C  C189  1  0.80920000  0.60480000  0.81920000  1
  C  C190  1  0.81470000  0.49500000  0.05000000  1
  C  C191  1  0.81920000  0.57180000  0.00856000  1
  C  C192  1  0.84560000  0.21100000  0.63622000  1
  C  C193  1  0.84780000  0.21190000  0.20612000  1
  C  C194  1  0.85810000  0.94290000  0.85212000  1
  C  C195  1  0.86180000  0.90420000  0.00859000  1
  C  C196  1  0.86970000  0.02570000  0.81514000  1
  C  C197  1  0.87470000  0.97930000  0.05041000  1
  C  C198  1  0.89520000  0.80920000  0.68080000  1
  C  C199  1  0.90420000  0.63820000  0.49141000  1
  C  C200  1  0.92820000  0.81920000  0.49144000  1
  C  C201  1  0.94290000  0.64190000  0.64788000  1
  C  C202  1  0.95600000  0.28520000  0.27830000  1
  C  C203  1  0.96640000  0.28550000  0.57077000  1
  C  C204  1  0.97430000  0.36970000  0.31514000  1
  C  C205  1  0.97540000  0.80400000  0.72028000  1
  C  C206  1  0.97930000  0.62530000  0.44959000  1
  C  C207  1  0.99500000  0.18530000  0.55000000  1
  S  S208  1  0.05028000  0.27796000  0.08064000  1
  S  S209  1  0.22204000  0.05028000  0.41936000  1
  S  S210  1  0.27796000  0.44972000  0.41936000  1
  S  S211  1  0.44972000  0.22204000  0.08064000  1
  S  S212  1  0.55028000  0.77796000  0.91936000  1
  S  S213  1  0.72204000  0.55028000  0.58064000  1
  S  S214  1  0.77796000  0.94972000  0.58064000  1
  S  S215  1  0.94972000  0.72204000  0.91936000  1
  N  N216  1  0.12120000  0.26610000  0.48733000  1
  N  N217  1  0.12220000  0.26960000  0.35590000  1
  N  N218  1  0.23040000  0.12220000  0.14410000  1
  N  N219  1  0.23390000  0.12120000  0.01267000  1
  N  N220  1  0.26610000  0.37880000  0.01267000  1
  N  N221  1  0.26960000  0.37780000  0.14410000  1
  N  N222  1  0.37780000  0.23040000  0.35590000  1
  N  N223  1  0.37880000  0.23390000  0.48733000  1
  N  N224  1  0.62120000  0.76610000  0.51267000  1
  N  N225  1  0.62220000  0.76960000  0.64410000  1
  N  N226  1  0.73040000  0.62220000  0.85590000  1
  N  N227  1  0.73390000  0.62120000  0.98733000  1
  N  N228  1  0.76610000  0.87880000  0.98733000  1
  N  N229  1  0.76960000  0.87780000  0.85590000  1
  N  N230  1  0.87780000  0.73040000  0.64410000  1
  N  N231  1  0.87880000  0.73390000  0.51267000  1
  O  O232  1  0.10760000  0.69660000  0.38991000  1
  O  O233  1  0.12850000  0.70040000  0.75690000  1
  O  O234  1  0.19660000  0.89240000  0.88991000  1
  O  O235  1  0.20040000  0.87150000  0.25690000  1
  O  O236  1  0.29960000  0.62850000  0.25690000  1
  O  O237  1  0.30340000  0.60760000  0.88991000  1
  O  O238  1  0.37150000  0.79960000  0.75690000  1
  O  O239  1  0.39240000  0.80340000  0.38991000  1
  O  O240  1  0.60760000  0.19660000  0.61009000  1
  O  O241  1  0.62850000  0.20040000  0.24310000  1
  O  O242  1  0.69660000  0.39240000  0.11009000  1
  O  O243  1  0.70040000  0.37150000  0.74310000  1
  O  O244  1  0.79960000  0.12850000  0.74310000  1
  O  O245  1  0.80340000  0.10760000  0.11009000  1
  O  O246  1  0.87150000  0.29960000  0.24310000  1
  O  O247  1  0.89240000  0.30340000  0.61009000  1
