# generated using pymatgen
data_FeCu2P2H20C18(BrN)2
_symmetry_space_group_name_H-M   'P 1'
_cell_length_a   25.02777259
_cell_length_b   25.02750000
_cell_length_c   25.02750000
_cell_angle_alpha   109.47100000
_cell_angle_beta   109.47144127
_cell_angle_gamma   109.47144127
_symmetry_Int_Tables_number   1
_chemical_formula_structural   FeCu2P2H20C18(BrN)2
_chemical_formula_sum   'Fe12 Cu24 P24 H240 C216 Br24 N24'
_cell_volume   12067.96569595
_cell_formula_units_Z   12
loop_
 _symmetry_equiv_pos_site_id
 _symmetry_equiv_pos_as_xyz
  1  'x, y, z'
loop_
 _atom_site_type_symbol
 _atom_site_label
 _atom_site_symmetry_multiplicity
 _atom_site_fract_x
 _atom_site_fract_y
 _atom_site_fract_z
 _atom_site_occupancy
  Fe  Fe0  1  0.48086000  0.65640000  0.48086000  1
  Fe  Fe1  1  0.82446000  0.34360000  0.82446000  1
  Fe  Fe2  1  0.48086000  0.48086000  0.65640000  1
  Fe  Fe3  1  0.00000000  0.51914000  0.17554000  1
  Fe  Fe4  1  0.17554000  0.00000000  0.51914000  1
  Fe  Fe5  1  0.34360000  0.82446000  0.82446000  1
  Fe  Fe6  1  0.51914000  0.17554000  0.00000000  1
  Fe  Fe7  1  0.82446000  0.82446000  0.34360000  1
  Fe  Fe8  1  1.00000000  0.17554000  0.51914000  1
  Fe  Fe9  1  0.51914000  1.00000000  0.17554000  1
  Fe  Fe10  1  0.17554000  0.51914000  0.00000000  1
  Fe  Fe11  1  0.65640000  0.48086000  0.48086000  1
  Cu  Cu12  1  0.31841000  0.74341000  0.47318000  1
  Cu  Cu13  1  0.57500000  0.25659000  0.72977000  1
  Cu  Cu14  1  0.27023000  0.84523000  0.52682000  1
  Cu  Cu15  1  0.42500000  0.15477000  0.68159000  1
  Cu  Cu16  1  0.15477000  0.68159000  0.42500000  1
  Cu  Cu17  1  0.47318000  0.31841000  0.74341000  1
  Cu  Cu18  1  0.25659000  0.72977000  0.57500000  1
  Cu  Cu19  1  0.52682000  0.27023000  0.84523000  1
  Cu  Cu20  1  0.31841000  0.47318000  0.74341000  1
  Cu  Cu21  1  0.84523000  0.52682000  0.27023000  1
  Cu  Cu22  1  0.25659000  0.57500000  0.72977000  1
  Cu  Cu23  1  0.68159000  0.42500000  0.15477000  1
  Cu  Cu24  1  0.15477000  0.42500000  0.68159000  1
  Cu  Cu25  1  0.72977000  0.57500000  0.25659000  1
  Cu  Cu26  1  0.27023000  0.52682000  0.84523000  1
  Cu  Cu27  1  0.74341000  0.47318000  0.31841000  1
  Cu  Cu28  1  0.57500000  0.72977000  0.25659000  1
  Cu  Cu29  1  0.84523000  0.27023000  0.52682000  1
  Cu  Cu30  1  0.42500000  0.68159000  0.15477000  1
  Cu  Cu31  1  0.74341000  0.31841000  0.47318000  1
  Cu  Cu32  1  0.52682000  0.84523000  0.27023000  1
  Cu  Cu33  1  0.68159000  0.15477000  0.42500000  1
  Cu  Cu34  1  0.47318000  0.74341000  0.31841000  1
  Cu  Cu35  1  0.72977000  0.25659000  0.57500000  1
  P  P36  1  0.38823000  0.72238000  0.44979000  1
  P  P37  1  0.66585000  0.27762000  0.72741000  1
  P  P38  1  0.06156000  0.61177000  0.33415000  1
  P  P39  1  0.44979000  0.38823000  0.72238000  1
  P  P40  1  0.27259000  0.93844000  0.55021000  1
  P  P41  1  0.33415000  0.06156000  0.61177000  1
  P  P42  1  0.38823000  0.44979000  0.72238000  1
  P  P43  1  0.93844000  0.55021000  0.27259000  1
  P  P44  1  0.27762000  0.72741000  0.66585000  1
  P  P45  1  0.55021000  0.27259000  0.93844000  1
  P  P46  1  0.27762000  0.66585000  0.72741000  1
  P  P47  1  0.61177000  0.33415000  0.06156000  1
  P  P48  1  0.06156000  0.33415000  0.61177000  1
  P  P49  1  0.72741000  0.66585000  0.27762000  1
  P  P50  1  0.66585000  0.72741000  0.27762000  1
  P  P51  1  0.93844000  0.27259000  0.55021000  1
  P  P52  1  0.27259000  0.55021000  0.93844000  1
  P  P53  1  0.72238000  0.44979000  0.38823000  1
  P  P54  1  0.55021000  0.93844000  0.27259000  1
  P  P55  1  0.61177000  0.06156000  0.33415000  1
  P  P56  1  0.33415000  0.61177000  0.06156000  1
  P  P57  1  0.72238000  0.38823000  0.44979000  1
  P  P58  1  0.44979000  0.72238000  0.38823000  1
  P  P59  1  0.72741000  0.27762000  0.66585000  1
  H  H60  1  0.08970000  0.57560000  0.14350000  1
  H  H61  1  0.51410000  0.42440000  0.56790000  1
  H  H62  1  0.51620000  0.92450000  0.57370000  1
  H  H63  1  0.59170000  0.07550000  0.64920000  1
  H  H64  1  0.21760000  0.56650000  0.27690000  1
  H  H65  1  0.65110000  0.43350000  0.71040000  1
  H  H66  1  0.51830000  0.86520000  0.58090000  1
  H  H67  1  0.65310000  0.13480000  0.71570000  1
  H  H68  1  0.27020000  0.56720000  0.33340000  1
  H  H69  1  0.70300000  0.43280000  0.76620000  1
  H  H70  1  0.08330000  0.48200000  0.15530000  1
  H  H71  1  0.60130000  0.51800000  0.67330000  1
  H  H72  1  0.35080000  0.94250000  0.42630000  1
  H  H73  1  0.40830000  0.05750000  0.48380000  1
  H  H74  1  0.50380000  0.76200000  0.58100000  1
  H  H75  1  0.74180000  0.23800000  0.81900000  1
  H  H76  1  0.35080000  0.58110000  0.42990000  1
  H  H77  1  0.76970000  0.41890000  0.84880000  1
  H  H78  1  0.51800000  0.67330000  0.60130000  1
  H  H79  1  0.84470000  0.32670000  0.92800000  1
  H  H80  1  0.42440000  0.56790000  0.51410000  1
  H  H81  1  0.85650000  0.43210000  0.94620000  1
  H  H82  1  0.45110000  0.86240000  0.54910000  1
  H  H83  1  0.58870000  0.13760000  0.68670000  1
  H  H84  1  0.25120000  0.62200000  0.34960000  1
  H  H85  1  0.62920000  0.37800000  0.72760000  1
  H  H86  1  0.28430000  0.93740000  0.41910000  1
  H  H87  1  0.34690000  0.06260000  0.48170000  1
  H  H88  1  0.31330000  0.90200000  0.45090000  1
  H  H89  1  0.41130000  0.09800000  0.54890000  1
  H  H90  1  0.42440000  0.51410000  0.56790000  1
  H  H91  1  0.91030000  0.48590000  0.05380000  1
  H  H92  1  0.07910000  0.64920000  0.23030000  1
  H  H93  1  0.42990000  0.35080000  0.58110000  1
  H  H94  1  0.51800000  0.60130000  0.67330000  1
  H  H95  1  0.91670000  0.39870000  0.07200000  1
  H  H96  1  0.07720000  0.49620000  0.25820000  1
  H  H97  1  0.58100000  0.50380000  0.76200000  1
  H  H98  1  0.43350000  0.71040000  0.65110000  1
  H  H99  1  0.72310000  0.28960000  0.94070000  1
  H  H100  1  0.35080000  0.42990000  0.58110000  1
  H  H101  1  0.92090000  0.57010000  0.15120000  1
  H  H102  1  0.06320000  0.72986667  0.29700000  1
  H  H103  1  0.33333333  0.27013333  0.56713333  1
  H  H104  1  0.18100000  0.92280000  0.41900000  1
  H  H105  1  0.25820000  0.07720000  0.49620000  1
  H  H106  1  0.37800000  0.72760000  0.62920000  1
  H  H107  1  0.65040000  0.27240000  0.90160000  1
  H  H108  1  0.50380000  0.58100000  0.76200000  1
  H  H109  1  0.92280000  0.41900000  0.18100000  1
  H  H110  1  0.43280000  0.76620000  0.70300000  1
  H  H111  1  0.66660000  0.23380000  0.93680000  1
  H  H112  1  0.09840000  0.74880000  0.37080000  1
  H  H113  1  0.34960000  0.25120000  0.62200000  1
  H  H114  1  0.43350000  0.65110000  0.71040000  1
  H  H115  1  0.78240000  0.34890000  0.05930000  1
  H  H116  1  0.06260000  0.48170000  0.34690000  1
  H  H117  1  0.58090000  0.51830000  0.86520000  1
  H  H118  1  0.05930000  0.78240000  0.34890000  1
  H  H119  1  0.27690000  0.21760000  0.56650000  1
  H  H120  1  0.27020000  0.33340000  0.56720000  1
  H  H121  1  0.93680000  0.66660000  0.23380000  1
  H  H122  1  0.09800000  0.54890000  0.41130000  1
  H  H123  1  0.54910000  0.45110000  0.86240000  1
  H  H124  1  0.07200000  0.91670000  0.39870000  1
  H  H125  1  0.15530000  0.08330000  0.48200000  1
  H  H126  1  0.43280000  0.70300000  0.76620000  1
  H  H127  1  0.72980000  0.29700000  0.06320000  1
  H  H128  1  0.51830000  0.58090000  0.86520000  1
  H  H129  1  0.93740000  0.41910000  0.28430000  1
  H  H130  1  0.21760000  0.27690000  0.56650000  1
  H  H131  1  0.94070000  0.72310000  0.28960000  1
  H  H132  1  0.37800000  0.62920000  0.72760000  1
  H  H133  1  0.74880000  0.37080000  0.09840000  1
  H  H134  1  0.05750000  0.48380000  0.40830000  1
  H  H135  1  0.41890000  0.84880000  0.76970000  1
  H  H136  1  0.57010000  0.15120000  0.92090000  1
  H  H137  1  0.57370000  0.51620000  0.92450000  1
  H  H138  1  0.25120000  0.34960000  0.62200000  1
  H  H139  1  0.90160000  0.65040000  0.27240000  1
  H  H140  1  0.27240000  0.90160000  0.65040000  1
  H  H141  1  0.37080000  0.09840000  0.74880000  1
  H  H142  1  0.08330000  0.15530000  0.48200000  1
  H  H143  1  0.92800000  0.84470000  0.32670000  1
  H  H144  1  0.51620000  0.57370000  0.92450000  1
  H  H145  1  0.94250000  0.42630000  0.35080000  1
  H  H146  1  0.45110000  0.54910000  0.86240000  1
  H  H147  1  0.90200000  0.45090000  0.31330000  1
  H  H148  1  0.15120000  0.92090000  0.57010000  1
  H  H149  1  0.23030000  0.07910000  0.64920000  1
  H  H150  1  0.07720000  0.25820000  0.49620000  1
  H  H151  1  0.81900000  0.74180000  0.23800000  1
  H  H152  1  0.06260000  0.34690000  0.48170000  1
  H  H153  1  0.71570000  0.65310000  0.13480000  1
  H  H154  1  0.43210000  0.94620000  0.85650000  1
  H  H155  1  0.48590000  0.05380000  0.91030000  1
  H  H156  1  0.05750000  0.40830000  0.48380000  1
  H  H157  1  0.64920000  0.59170000  0.07550000  1
  H  H158  1  0.41890000  0.76970000  0.84880000  1
  H  H159  1  0.64920000  0.23030000  0.07910000  1
  H  H160  1  0.05380000  0.91030000  0.48590000  1
  H  H161  1  0.14350000  0.08970000  0.57560000  1
  H  H162  1  0.23380000  0.93680000  0.66660000  1
  H  H163  1  0.29700000  0.06320000  0.72980000  1
  H  H164  1  0.28960000  0.94070000  0.72310000  1
  H  H165  1  0.34890000  0.05930000  0.78240000  1
  H  H166  1  0.09800000  0.41130000  0.54890000  1
  H  H167  1  0.68670000  0.58870000  0.13760000  1
  H  H168  1  0.13760000  0.68670000  0.58870000  1
  H  H169  1  0.45090000  0.31330000  0.90200000  1
  H  H170  1  0.65310000  0.71570000  0.13480000  1
  H  H171  1  0.93740000  0.28430000  0.41910000  1
  H  H172  1  0.84470000  0.92800000  0.32670000  1
  H  H173  1  0.91670000  0.07200000  0.39870000  1
  H  H174  1  0.59170000  0.64920000  0.07550000  1
  H  H175  1  0.94250000  0.35080000  0.42630000  1
  H  H176  1  0.08970000  0.14350000  0.57560000  1
  H  H177  1  0.94620000  0.85650000  0.43210000  1
  H  H178  1  0.74180000  0.81900000  0.23800000  1
  H  H179  1  0.92280000  0.18100000  0.41900000  1
  H  H180  1  0.23800000  0.81900000  0.74180000  1
  H  H181  1  0.41900000  0.18100000  0.92280000  1
  H  H182  1  0.43210000  0.85650000  0.94620000  1
  H  H183  1  0.57560000  0.14350000  0.08970000  1
  H  H184  1  0.07550000  0.64920000  0.59170000  1
  H  H185  1  0.42630000  0.35080000  0.94250000  1
  H  H186  1  0.32670000  0.92800000  0.84470000  1
  H  H187  1  0.39870000  0.07200000  0.91670000  1
  H  H188  1  0.13480000  0.71570000  0.65310000  1
  H  H189  1  0.41910000  0.28430000  0.93740000  1
  H  H190  1  0.58870000  0.68670000  0.13760000  1
  H  H191  1  0.90200000  0.31330000  0.45090000  1
  H  H192  1  0.13760000  0.58870000  0.68670000  1
  H  H193  1  0.54890000  0.41130000  0.09800000  1
  H  H194  1  0.72310000  0.94070000  0.28960000  1
  H  H195  1  0.78240000  0.05930000  0.34890000  1
  H  H196  1  0.66660000  0.93680000  0.23380000  1
  H  H197  1  0.72980000  0.06320000  0.29700000  1
  H  H198  1  0.48590000  0.91030000  0.05380000  1
  H  H199  1  0.57560000  0.08970000  0.14350000  1
  H  H200  1  0.07910000  0.23030000  0.64920000  1
  H  H201  1  0.84880000  0.76970000  0.41890000  1
  H  H202  1  0.07550000  0.59170000  0.64920000  1
  H  H203  1  0.48380000  0.40830000  0.05750000  1
  H  H204  1  0.85650000  0.94620000  0.43210000  1
  H  H205  1  0.91030000  0.05380000  0.48590000  1
  H  H206  1  0.13480000  0.65310000  0.71570000  1
  H  H207  1  0.48170000  0.34690000  0.06260000  1
  H  H208  1  0.23800000  0.74180000  0.81900000  1
  H  H209  1  0.49620000  0.25820000  0.07720000  1
  H  H210  1  0.57010000  0.92090000  0.15120000  1
  H  H211  1  0.64920000  0.07910000  0.23030000  1
  H  H212  1  0.31330000  0.45090000  0.90200000  1
  H  H213  1  0.86240000  0.54910000  0.45110000  1
  H  H214  1  0.35080000  0.42630000  0.94250000  1
  H  H215  1  0.92450000  0.57370000  0.51620000  1
  H  H216  1  0.32670000  0.84470000  0.92800000  1
  H  H217  1  0.48200000  0.15530000  0.08330000  1
  H  H218  1  0.65040000  0.90160000  0.27240000  1
  H  H219  1  0.74880000  0.09840000  0.37080000  1
  H  H220  1  0.27240000  0.65040000  0.90160000  1
  H  H221  1  0.62200000  0.34960000  0.25120000  1
  H  H222  1  0.40830000  0.48380000  0.05750000  1
  H  H223  1  0.76970000  0.84880000  0.41890000  1
  H  H224  1  0.92090000  0.15120000  0.57010000  1
  H  H225  1  0.92450000  0.51620000  0.57370000  1
  H  H226  1  0.09840000  0.37080000  0.74880000  1
  H  H227  1  0.72760000  0.62920000  0.37800000  1
  H  H228  1  0.28960000  0.72310000  0.94070000  1
  H  H229  1  0.56650000  0.27690000  0.21760000  1
  H  H230  1  0.28430000  0.41910000  0.93740000  1
  H  H231  1  0.86520000  0.58090000  0.51830000  1
  H  H232  1  0.06320000  0.29700000  0.72986667  1
  H  H233  1  0.76620000  0.70300000  0.43286667  1
  H  H234  1  0.39870000  0.91670000  0.07200000  1
  H  H235  1  0.48200000  0.08330000  0.15530000  1
  H  H236  1  0.41130000  0.54890000  0.09800000  1
  H  H237  1  0.86240000  0.45110000  0.54910000  1
  H  H238  1  0.23380000  0.66660000  0.93680000  1
  H  H239  1  0.56720000  0.33340000  0.27020000  1
  H  H240  1  0.34890000  0.78240000  0.05930000  1
  H  H241  1  0.56650000  0.21760000  0.27690000  1
  H  H242  1  0.34690000  0.48170000  0.06260000  1
  H  H243  1  0.86520000  0.51830000  0.58090000  1
  H  H244  1  0.05930000  0.34890000  0.78240000  1
  H  H245  1  0.71040000  0.65110000  0.43350000  1
  H  H246  1  0.37080000  0.74880000  0.09840000  1
  H  H247  1  0.62200000  0.25120000  0.34960000  1
  H  H248  1  0.70300000  0.76620000  0.43280000  1
  H  H249  1  0.93680000  0.23380000  0.66660000  1
  H  H250  1  0.18100000  0.41900000  0.92280000  1
  H  H251  1  0.76200000  0.58100000  0.50380000  1
  H  H252  1  0.62920000  0.72760000  0.37800000  1
  H  H253  1  0.90160000  0.27240000  0.65040000  1
  H  H254  1  0.41900000  0.92280000  0.18100000  1
  H  H255  1  0.49620000  0.07720000  0.25820000  1
  H  H256  1  0.29700000  0.72980000  0.06320000  1
  H  H257  1  0.56720000  0.27020000  0.33340000  1
  H  H258  1  0.15120000  0.57010000  0.92090000  1
  H  H259  1  0.58110000  0.42990000  0.35080000  1
  H  H260  1  0.65110000  0.71040000  0.43350000  1
  H  H261  1  0.94070000  0.28960000  0.72310000  1
  H  H262  1  0.25820000  0.49620000  0.07720000  1
  H  H263  1  0.76200000  0.50380000  0.58100000  1
  H  H264  1  0.07200000  0.39870000  0.91670000  1
  H  H265  1  0.67330000  0.60130000  0.51800000  1
  H  H266  1  0.23030000  0.64920000  0.07910000  1
  H  H267  1  0.58110000  0.35080000  0.42990000  1
  H  H268  1  0.05380000  0.48590000  0.91030000  1
  H  H269  1  0.56790000  0.51410000  0.42440000  1
  H  H270  1  0.45090000  0.90200000  0.31330000  1
  H  H271  1  0.54890000  0.09800000  0.41130000  1
  H  H272  1  0.41910000  0.93740000  0.28430000  1
  H  H273  1  0.48170000  0.06260000  0.34690000  1
  H  H274  1  0.34960000  0.62200000  0.25120000  1
  H  H275  1  0.72760000  0.37800000  0.62920000  1
  H  H276  1  0.54910000  0.86240000  0.45110000  1
  H  H277  1  0.68670000  0.13760000  0.58870000  1
  H  H278  1  0.51410000  0.56790000  0.42440000  1
  H  H279  1  0.94620000  0.43210000  0.85650000  1
  H  H280  1  0.60130000  0.67330000  0.51800000  1
  H  H281  1  0.92800000  0.32670000  0.84470000  1
  H  H282  1  0.42990000  0.58110000  0.35080000  1
  H  H283  1  0.84880000  0.41890000  0.76970000  1
  H  H284  1  0.58100000  0.76200000  0.50380000  1
  H  H285  1  0.81900000  0.23800000  0.74180000  1
  H  H286  1  0.42630000  0.94250000  0.35080000  1
  H  H287  1  0.48380000  0.05750000  0.40830000  1
  H  H288  1  0.15530000  0.48200000  0.08330000  1
  H  H289  1  0.67330000  0.51800000  0.60130000  1
  H  H290  1  0.33333333  0.56713333  0.27013333  1
  H  H291  1  0.76620000  0.43286667  0.70300000  1
  H  H292  1  0.58090000  0.86520000  0.51830000  1
  H  H293  1  0.71570000  0.13480000  0.65310000  1
  H  H294  1  0.27690000  0.56650000  0.21760000  1
  H  H295  1  0.71040000  0.43350000  0.65110000  1
  H  H296  1  0.57370000  0.92450000  0.51620000  1
  H  H297  1  0.64920000  0.07550000  0.59170000  1
  H  H298  1  0.14350000  0.57560000  0.08970000  1
  H  H299  1  0.56790000  0.42440000  0.51410000  1
  C  C300  1  0.31030000  0.63500000  0.31030000  1
  C  C301  1  0.48800000  0.84820000  0.48800000  1
  C  C302  1  0.29200000  0.68200000  0.29200000  1
  C  C303  1  0.63980000  0.15180000  0.63980000  1
  C  C304  1  0.58110000  0.13860000  0.58110000  1
  C  C305  1  0.61000000  0.31800000  0.61000000  1
  C  C306  1  0.49390000  0.87770000  0.55380000  1
  C  C307  1  0.61620000  0.12230000  0.67610000  1
  C  C308  1  0.25770000  0.59400000  0.31830000  1
  C  C309  1  0.66370000  0.40600000  0.72430000  1
  C  C310  1  0.41800000  0.68490000  0.49350000  1
  C  C311  1  0.73310000  0.31510000  0.80860000  1
  C  C312  1  0.47570000  0.71700000  0.55390000  1
  C  C313  1  0.75870000  0.28300000  0.83690000  1
  C  C314  1  0.38910000  0.61440000  0.46890000  1
  C  C315  1  0.77470000  0.38560000  0.85450000  1
  C  C316  1  0.48320000  0.66640000  0.56560000  1
  C  C317  1  0.81680000  0.33360000  0.89920000  1
  C  C318  1  0.43130000  0.60770000  0.51640000  1
  C  C319  1  0.82360000  0.39230000  0.90870000  1
  C  C320  1  0.08510000  0.56870000  0.17640000  1
  C  C321  1  0.51640000  0.43130000  0.60770000  1
  C  C322  1  0.08240000  0.51680000  0.18320000  1
  C  C323  1  0.56560000  0.48320000  0.66640000  1
  C  C324  1  0.32390000  0.94010000  0.44620000  1
  C  C325  1  0.38380000  0.05990000  0.50610000  1
  C  C326  1  0.41890000  0.00000000  0.55750000  1
  C  C327  1  0.07980000  0.61090000  0.22530000  1
  C  C328  1  0.46890000  0.38910000  0.61440000  1
  C  C329  1  0.36020000  1.00000000  0.51200000  1
  C  C330  1  0.07820000  0.52430000  0.24130000  1
  C  C331  1  0.55390000  0.47570000  0.71700000  1
  C  C332  1  0.43130000  0.51640000  0.60770000  1
  C  C333  1  0.91490000  0.48360000  0.09130000  1
  C  C334  1  0.48320000  0.56560000  0.66640000  1
  C  C335  1  0.91760000  0.43440000  0.10080000  1
  C  C336  1  0.07550000  0.58200000  0.26690000  1
  C  C337  1  0.49350000  0.41800000  0.68490000  1
  C  C338  1  0.38910000  0.46890000  0.61440000  1
  C  C339  1  0.92020000  0.53110000  0.14550000  1
  C  C340  1  0.47570000  0.55390000  0.71700000  1
  C  C341  1  0.92180000  0.44610000  0.16310000  1
  C  C342  1  0.40600000  0.72430000  0.66370000  1
  C  C343  1  0.68170000  0.27570000  0.93940000  1
  C  C344  1  0.41800000  0.49350000  0.68490000  1
  C  C345  1  0.92450000  0.50650000  0.19140000  1
  C  C346  1  0.06060000  0.74230000  0.33630000  1
  C  C347  1  0.31830000  0.25770000  0.59400000  1
  C  C348  1  0.16310000  0.92180000  0.44610000  1
  C  C349  1  0.24130000  0.07820000  0.52430000  1
  C  C350  1  0.31800000  0.61000000  0.61000000  1
  C  C351  1  0.70800000  0.39000000  0.00000000  1
  C  C352  1  0.36500000  0.67530000  0.67530000  1
  C  C353  1  0.68970000  0.32470000  0.00000000  1
  C  C354  1  0.19140000  0.92450000  0.50650000  1
  C  C355  1  0.26690000  0.07550000  0.58200000  1
  C  C356  1  0.39000000  0.00000000  0.70800000  1
  C  C357  1  0.40600000  0.66370000  0.72430000  1
  C  C358  1  0.74230000  0.33630000  0.06060000  1
  C  C359  1  0.05990000  0.50610000  0.38380000  1
  C  C360  1  0.55380000  0.49390000  0.87770000  1
  C  C361  1  0.31030000  0.31030000  0.63500000  1
  C  C362  1  0.00000000  0.68970000  0.32470000  1
  C  C363  1  0.10080000  0.91760000  0.43440000  1
  C  C364  1  0.18320000  0.08240000  0.51680000  1
  C  C365  1  0.25770000  0.31830000  0.59400000  1
  C  C366  1  0.93940000  0.68170000  0.27570000  1
  C  C367  1  0.48800000  0.48800000  0.84820000  1
  C  C368  1  0.00000000  0.51200000  0.36020000  1
  C  C369  1  0.32470000  0.00000000  0.68970000  1
  C  C370  1  0.49390000  0.55380000  0.87770000  1
  C  C371  1  0.94010000  0.44620000  0.32390000  1
  C  C372  1  0.14550000  0.92020000  0.53110000  1
  C  C373  1  0.22530000  0.07980000  0.61090000  1
  C  C374  1  0.38560000  0.85450000  0.77470000  1
  C  C375  1  0.53110000  0.14550000  0.92020000  1
  C  C376  1  0.29200000  0.29200000  0.68200000  1
  C  C377  1  0.00000000  0.70800000  0.39000000  1
  C  C378  1  0.09130000  0.91490000  0.48360000  1
  C  C379  1  0.17640000  0.08510000  0.56870000  1
  C  C380  1  0.27570000  0.93940000  0.68170000  1
  C  C381  1  0.33630000  0.06060000  0.74230000  1
  C  C382  1  0.31510000  0.80860000  0.73310000  1
  C  C383  1  0.50650000  0.19140000  0.92450000  1
  C  C384  1  0.44250000  0.44250000  0.86140000  1
  C  C385  1  0.00000000  0.55750000  0.41890000  1
  C  C386  1  0.39230000  0.90870000  0.82360000  1
  C  C387  1  0.48360000  0.09130000  0.91490000  1
  C  C388  1  0.08240000  0.18320000  0.51680000  1
  C  C389  1  0.89920000  0.81680000  0.33360000  1
  C  C390  1  0.13860000  0.58110000  0.58110000  1
  C  C391  1  0.55750000  0.41890000  0.00000000  1
  C  C392  1  0.07820000  0.24130000  0.52430000  1
  C  C393  1  0.83690000  0.75870000  0.28300000  1
  C  C394  1  0.05990000  0.38380000  0.50610000  1
  C  C395  1  0.67610000  0.61620000  0.12230000  1
  C  C396  1  0.38560000  0.77470000  0.85450000  1
  C  C397  1  0.61090000  0.22530000  0.07980000  1
  C  C398  1  0.28300000  0.83690000  0.75870000  1
  C  C399  1  0.44610000  0.16310000  0.92180000  1
  C  C400  1  0.33360000  0.89920000  0.81680000  1
  C  C401  1  0.43440000  0.10080000  0.91760000  1
  C  C402  1  0.08510000  0.17640000  0.56870000  1
  C  C403  1  0.90870000  0.82360000  0.39230000  1
  C  C404  1  0.15180000  0.63980000  0.63980000  1
  C  C405  1  0.51200000  0.36020000  0.00000000  1
  C  C406  1  0.31510000  0.73310000  0.80860000  1
  C  C407  1  0.58200000  0.26690000  0.07550000  1
  C  C408  1  0.12230000  0.67610000  0.61620000  1
  C  C409  1  0.44620000  0.32390000  0.94010000  1
  C  C410  1  0.61620000  0.67610000  0.12230000  1
  C  C411  1  0.94010000  0.32390000  0.44620000  1
  C  C412  1  0.07550000  0.26690000  0.58200000  1
  C  C413  1  0.80860000  0.73310000  0.31510000  1
  C  C414  1  0.63980000  0.63980000  0.15180000  1
  C  C415  1  0.00000000  0.36020000  0.51200000  1
  C  C416  1  0.39230000  0.82360000  0.90870000  1
  C  C417  1  0.56870000  0.17640000  0.08510000  1
  C  C418  1  0.81680000  0.89920000  0.33360000  1
  C  C419  1  0.91760000  0.10080000  0.43440000  1
  C  C420  1  0.75870000  0.83690000  0.28300000  1
  C  C421  1  0.92180000  0.16310000  0.44610000  1
  C  C422  1  0.07980000  0.22530000  0.61090000  1
  C  C423  1  0.85450000  0.77470000  0.38560000  1
  C  C424  1  0.12230000  0.61620000  0.67610000  1
  C  C425  1  0.50610000  0.38380000  0.05990000  1
  C  C426  1  0.28300000  0.75870000  0.83690000  1
  C  C427  1  0.52430000  0.24130000  0.07820000  1
  C  C428  1  0.58110000  0.58110000  0.13860000  1
  C  C429  1  1.00000000  0.41890000  0.55750000  1
  C  C430  1  0.33360000  0.81680000  0.89920000  1
  C  C431  1  0.51680000  0.18320000  0.08240000  1
  C  C432  1  0.82360000  0.90870000  0.39230000  1
  C  C433  1  0.91490000  0.09130000  0.48360000  1
  C  C434  1  0.41890000  0.55750000  0.00000000  1
  C  C435  1  0.86140000  0.44250000  0.44250000  1
  C  C436  1  0.73310000  0.80860000  0.31510000  1
  C  C437  1  0.92450000  0.19140000  0.50650000  1
  C  C438  1  0.68170000  0.93940000  0.27570000  1
  C  C439  1  0.74230000  0.06060000  0.33630000  1
  C  C440  1  0.48360000  0.91490000  0.09130000  1
  C  C441  1  0.56870000  0.08510000  0.17640000  1
  C  C442  1  0.39000000  0.70800000  0.00000000  1
  C  C443  1  0.68200000  0.29200000  0.29200000  1
  C  C444  1  0.77470000  0.85450000  0.38560000  1
  C  C445  1  0.92020000  0.14550000  0.53110000  1
  C  C446  1  0.53110000  0.92020000  0.14550000  1
  C  C447  1  0.61090000  0.07980000  0.22530000  1
  C  C448  1  0.32390000  0.44620000  0.94010000  1
  C  C449  1  0.87770000  0.55380000  0.49390000  1
  C  C450  1  0.68970000  0.00000000  0.32470000  1
  C  C451  1  0.36020000  0.51200000  0.00000000  1
  C  C452  1  0.84820000  0.48800000  0.48800000  1
  C  C453  1  0.27570000  0.68170000  0.93940000  1
  C  C454  1  0.59400000  0.31830000  0.25770000  1
  C  C455  1  0.43440000  0.91760000  0.10080000  1
  C  C456  1  0.51680000  0.08240000  0.18320000  1
  C  C457  1  0.32470000  0.68970000  0.00000000  1
  C  C458  1  0.63500000  0.31030000  0.31030000  1
  C  C459  1  0.38380000  0.50610000  0.05990000  1
  C  C460  1  0.87770000  0.49390000  0.55380000  1
  C  C461  1  0.06060000  0.33630000  0.74230000  1
  C  C462  1  0.72430000  0.66370000  0.40600000  1
  C  C463  1  0.70800000  0.00000000  0.39000000  1
  C  C464  1  0.50650000  0.92450000  0.19140000  1
  C  C465  1  0.58200000  0.07550000  0.26690000  1
  C  C466  1  0.67530000  0.67530000  0.36500000  1
  C  C467  1  1.00000000  0.32470000  0.68970000  1
  C  C468  1  0.61000000  0.61000000  0.31800000  1
  C  C469  1  0.00000000  0.39000000  0.70800000  1
  C  C470  1  0.44610000  0.92180000  0.16310000  1
  C  C471  1  0.52430000  0.07820000  0.24130000  1
  C  C472  1  0.33630000  0.74230000  0.06060000  1
  C  C473  1  0.59400000  0.25770000  0.31830000  1
  C  C474  1  0.19140000  0.50650000  0.92450000  1
  C  C475  1  0.68490000  0.49350000  0.41800000  1
  C  C476  1  0.66370000  0.72430000  0.40600000  1
  C  C477  1  0.93940000  0.27570000  0.68170000  1
  C  C478  1  0.16310000  0.44610000  0.92180000  1
  C  C479  1  0.71700000  0.55390000  0.47570000  1
  C  C480  1  0.14550000  0.53110000  0.92020000  1
  C  C481  1  0.61440000  0.46890000  0.38910000  1
  C  C482  1  0.26690000  0.58200000  0.07550000  1
  C  C483  1  0.68490000  0.41800000  0.49350000  1
  C  C484  1  0.10080000  0.43440000  0.91760000  1
  C  C485  1  0.66640000  0.56560000  0.48320000  1
  C  C486  1  0.09130000  0.48360000  0.91490000  1
  C  C487  1  0.60770000  0.51640000  0.43130000  1
  C  C488  1  0.24130000  0.52430000  0.07820000  1
  C  C489  1  0.71700000  0.47570000  0.55390000  1
  C  C490  1  0.51200000  0.00000000  0.36020000  1
  C  C491  1  0.22530000  0.61090000  0.07980000  1
  C  C492  1  0.61440000  0.38910000  0.46890000  1
  C  C493  1  0.55750000  0.00000000  0.41890000  1
  C  C494  1  0.44620000  0.94010000  0.32390000  1
  C  C495  1  0.50610000  0.05990000  0.38380000  1
  C  C496  1  0.18320000  0.51680000  0.08240000  1
  C  C497  1  0.66640000  0.48320000  0.56560000  1
  C  C498  1  0.17640000  0.56870000  0.08510000  1
  C  C499  1  0.60770000  0.43130000  0.51640000  1
  C  C500  1  0.51640000  0.60770000  0.43130000  1
  C  C501  1  0.90870000  0.39230000  0.82360000  1
  C  C502  1  0.56560000  0.66640000  0.48320000  1
  C  C503  1  0.89920000  0.33360000  0.81680000  1
  C  C504  1  0.46890000  0.61440000  0.38910000  1
  C  C505  1  0.85450000  0.38560000  0.77470000  1
  C  C506  1  0.55390000  0.71700000  0.47570000  1
  C  C507  1  0.83690000  0.28300000  0.75870000  1
  C  C508  1  0.49350000  0.68490000  0.41800000  1
  C  C509  1  0.80860000  0.31510000  0.73310000  1
  C  C510  1  0.31830000  0.59400000  0.25770000  1
  C  C511  1  0.72430000  0.40600000  0.66370000  1
  C  C512  1  0.55380000  0.87770000  0.49390000  1
  C  C513  1  0.67610000  0.12230000  0.61620000  1
  C  C514  1  0.44250000  0.86140000  0.44250000  1
  C  C515  1  0.67530000  0.36500000  0.67530000  1
  Br  Br516  1  0.23598000  0.76644000  0.41104000  1
  Br  Br517  1  0.46954000  0.23356000  0.64460000  1
  Br  Br518  1  0.35540000  0.82494000  0.58896000  1
  Br  Br519  1  0.53046000  0.17506000  0.76402000  1
  Br  Br520  1  0.23356000  0.64460000  0.46954000  1
  Br  Br521  1  0.58896000  0.35540000  0.82494000  1
  Br  Br522  1  0.17506000  0.76402000  0.53046000  1
  Br  Br523  1  0.41104000  0.23598000  0.76644000  1
  Br  Br524  1  0.23356000  0.46954000  0.64460000  1
  Br  Br525  1  0.76402000  0.53046000  0.17506000  1
  Br  Br526  1  0.35540000  0.58896000  0.82494000  1
  Br  Br527  1  0.76644000  0.41104000  0.23598000  1
  Br  Br528  1  0.23598000  0.41104000  0.76644000  1
  Br  Br529  1  0.82494000  0.58896000  0.35540000  1
  Br  Br530  1  0.17506000  0.53046000  0.76402000  1
  Br  Br531  1  0.64460000  0.46954000  0.23356000  1
  Br  Br532  1  0.53046000  0.76402000  0.17506000  1
  Br  Br533  1  0.76644000  0.23598000  0.41104000  1
  Br  Br534  1  0.46954000  0.64460000  0.23356000  1
  Br  Br535  1  0.82494000  0.35540000  0.58896000  1
  Br  Br536  1  0.58896000  0.82494000  0.35540000  1
  Br  Br537  1  0.76402000  0.17506000  0.53046000  1
  Br  Br538  1  0.41104000  0.76644000  0.23598000  1
  Br  Br539  1  0.64460000  0.23356000  0.46954000  1
  N  N540  1  0.37329000  0.67518000  0.37329000  1
  N  N541  1  0.45982000  0.77664000  0.45982000  1
  N  N542  1  0.68318000  0.22336000  0.68318000  1
  N  N543  1  0.69811000  0.32482000  0.69811000  1
  N  N544  1  0.31682000  1.00000000  0.54018000  1
  N  N545  1  0.37329000  0.37329000  0.67518000  1
  N  N546  1  0.00000000  0.62671000  0.30189000  1
  N  N547  1  0.45982000  0.45982000  0.77664000  1
  N  N548  1  0.00000000  0.54018000  0.31682000  1
  N  N549  1  0.30189000  0.00000000  0.62671000  1
  N  N550  1  0.32482000  0.69811000  0.69811000  1
  N  N551  1  0.62671000  0.30189000  0.00000000  1
  N  N552  1  0.22336000  0.68318000  0.68318000  1
  N  N553  1  0.54018000  0.31682000  0.00000000  1
  N  N554  1  0.68318000  0.68318000  0.22336000  1
  N  N555  1  1.00000000  0.31682000  0.54018000  1
  N  N556  1  0.69811000  0.69811000  0.32482000  1
  N  N557  1  0.00000000  0.30189000  0.62671000  1
  N  N558  1  0.62671000  0.00000000  0.30189000  1
  N  N559  1  0.31682000  0.54018000  0.00000000  1
  N  N560  1  0.77664000  0.45982000  0.45982000  1
  N  N561  1  0.30189000  0.62671000  0.00000000  1
  N  N562  1  0.67518000  0.37329000  0.37329000  1
  N  N563  1  0.54018000  1.00000000  0.31682000  1
