# generated using pymatgen
data_NdP4H8Ru2(C2O7)2
_symmetry_space_group_name_H-M   'P 1'
_cell_length_a   9.66020000
_cell_length_b   9.66020000
_cell_length_c   15.62500000
_cell_angle_alpha   92.90530000
_cell_angle_beta   92.90530000
_cell_angle_gamma   99.10620000
_symmetry_Int_Tables_number   1
_chemical_formula_structural   NdP4H8Ru2(C2O7)2
_chemical_formula_sum   'Nd2 P8 H16 Ru4 C8 O28'
_cell_volume   1435.33866831
_cell_formula_units_Z   2
loop_
 _symmetry_equiv_pos_site_id
 _symmetry_equiv_pos_as_xyz
  1  'x, y, z'
loop_
 _atom_site_type_symbol
 _atom_site_label
 _atom_site_symmetry_multiplicity
 _atom_site_fract_x
 _atom_site_fract_y
 _atom_site_fract_z
 _atom_site_occupancy
  Nd  Nd0  1  0.01135000  0.98865000  0.25000000  1
  Nd  Nd1  1  0.98865000  0.01135000  0.75000000  1
  P  P2  1  0.65005000  0.97491000  0.15262000  1
  P  P3  1  0.64469000  0.95511000  0.85576000  1
  P  P4  1  0.97491000  0.65005000  0.65262000  1
  P  P5  1  0.95511000  0.64469000  0.35576000  1
  P  P6  1  0.04489000  0.35531000  0.64424000  1
  P  P7  1  0.02509000  0.34995000  0.34738000  1
  P  P8  1  0.35531000  0.04489000  0.14424000  1
  P  P9  1  0.34995000  0.02509000  0.84738000  1
  H  H10  1  0.36230000  0.87150000  0.68790000  1
  H  H11  1  0.52140000  0.84540000  0.68370000  1
  H  H12  1  0.41900000  0.82500000  0.23200000  1
  H  H13  1  0.42460000  0.77340000  0.75450000  1
  H  H14  1  0.12850000  0.63770000  0.81210000  1
  H  H15  1  0.17500000  0.58100000  0.26800000  1
  H  H16  1  0.22660000  0.57540000  0.74550000  1
  H  H17  1  0.84540000  0.52140000  0.18370000  1
  H  H18  1  0.15460000  0.47860000  0.81630000  1
  H  H19  1  0.77340000  0.42460000  0.25450000  1
  H  H20  1  0.82500000  0.41900000  0.73200000  1
  H  H21  1  0.87150000  0.36230000  0.18790000  1
  H  H22  1  0.57540000  0.22660000  0.24550000  1
  H  H23  1  0.58100000  0.17500000  0.76800000  1
  H  H24  1  0.47860000  0.15460000  0.31630000  1
  H  H25  1  0.63770000  0.12850000  0.31210000  1
  Ru  Ru26  1  0.45397000  0.87961000  0.99779000  1
  Ru  Ru27  1  0.12039000  0.54603000  0.50221000  1
  Ru  Ru28  1  0.87961000  0.45397000  0.49779000  1
  Ru  Ru29  1  0.54603000  0.12039000  0.00221000  1
  C  C30  1  0.49420000  0.98460000  0.78380000  1
  C  C31  1  0.44640000  0.85740000  0.72200000  1
  C  C32  1  0.14260000  0.55360000  0.77800000  1
  C  C33  1  0.01540000  0.50580000  0.71620000  1
  C  C34  1  0.98460000  0.49420000  0.28380000  1
  C  C35  1  0.85740000  0.44640000  0.22200000  1
  C  C36  1  0.55360000  0.14260000  0.27800000  1
  C  C37  1  0.50580000  0.01540000  0.21620000  1
  O  O38  1  0.76883000  0.95137000  0.21214000  1
  O  O39  1  0.76460000  0.92240000  0.80144000  1
  O  O40  1  0.31060000  0.91000000  0.08562000  1
  O  O41  1  0.45010000  0.89870000  0.26600000  1
  O  O42  1  0.30920000  0.89820000  0.90175000  1
  O  O43  1  0.59252000  0.84388000  0.09238000  1
  O  O44  1  0.59030000  0.83150000  0.91111000  1
  O  O45  1  0.95137000  0.76883000  0.71214000  1
  O  O46  1  0.92240000  0.76460000  0.30144000  1
  O  O47  1  0.10180000  0.69080000  0.59825000  1
  O  O48  1  0.09000000  0.68940000  0.41438000  1
  O  O49  1  0.84388000  0.59252000  0.59238000  1
  O  O50  1  0.83150000  0.59030000  0.41111000  1
  O  O51  1  0.10130000  0.54990000  0.23400000  1
  O  O52  1  0.89870000  0.45010000  0.76600000  1
  O  O53  1  0.16850000  0.40970000  0.58889000  1
  O  O54  1  0.15612000  0.40748000  0.40762000  1
  O  O55  1  0.91000000  0.31060000  0.58562000  1
  O  O56  1  0.89820000  0.30920000  0.40175000  1
  O  O57  1  0.07760000  0.23540000  0.69856000  1
  O  O58  1  0.04863000  0.23117000  0.28786000  1
  O  O59  1  0.40970000  0.16850000  0.08889000  1
  O  O60  1  0.40748000  0.15612000  0.90762000  1
  O  O61  1  0.69080000  0.10180000  0.09825000  1
  O  O62  1  0.54990000  0.10130000  0.73400000  1
  O  O63  1  0.68940000  0.09000000  0.91438000  1
  O  O64  1  0.23540000  0.07760000  0.19856000  1
  O  O65  1  0.23117000  0.04863000  0.78786000  1
