# generated using pymatgen
data_PrH15(C9O2)3
_symmetry_space_group_name_H-M   'P 1'
_cell_length_a   16.43930000
_cell_length_b   16.43930000
_cell_length_c   23.77700000
_cell_angle_alpha   90.00000000
_cell_angle_beta   90.00000000
_cell_angle_gamma   120.00000000
_symmetry_Int_Tables_number   1
_chemical_formula_structural   PrH15(C9O2)3
_chemical_formula_sum   'Pr6 H90 C162 O36'
_cell_volume   5564.86113399
_cell_formula_units_Z   6
loop_
 _symmetry_equiv_pos_site_id
 _symmetry_equiv_pos_as_xyz
  1  'x, y, z'
loop_
 _atom_site_type_symbol
 _atom_site_label
 _atom_site_symmetry_multiplicity
 _atom_site_fract_x
 _atom_site_fract_y
 _atom_site_fract_z
 _atom_site_occupancy
  Pr  Pr0  1  0.00000000  0.08433000  0.83333000  1
  Pr  Pr1  1  1.00000000  0.91567000  0.33333333  1
  Pr  Pr2  1  0.91567000  0.91567000  0.16667000  1
  Pr  Pr3  1  0.91567000  1.00000000  1.00000000  1
  Pr  Pr4  1  0.08433000  0.08433000  0.66666667  1
  Pr  Pr5  1  0.08433000  1.00000000  0.50000000  1
  H  H6  1  0.98270000  0.32510000  0.65767000  1
  H  H7  1  0.98270000  0.65760000  0.50900000  1
  H  H8  1  0.96080000  0.18750000  0.48330000  1
  H  H9  1  0.96080000  0.77330000  0.68337000  1
  H  H10  1  0.88910000  0.18790000  0.07567000  1
  H  H11  1  0.88910000  0.70120000  0.09100000  1
  H  H12  1  0.88460000  0.38690000  0.66747000  1
  H  H13  1  0.88460000  0.49770000  0.49920000  1
  H  H14  1  0.87990000  0.26900000  0.48470000  1
  H  H15  1  0.87990000  0.61090000  0.68197000  1
  H  H16  1  0.85100000  0.37940000  0.44230000  1
  H  H17  1  0.85100000  0.47160000  0.72437000  1
  H  H18  1  0.82230000  0.27780000  0.06017000  1
  H  H19  1  0.82230000  0.54450000  0.10650000  1
  H  H20  1  0.81250000  0.03920000  0.35003000  1
  H  H21  1  0.81250000  0.77330000  0.81663000  1
  H  H22  1  0.81210000  0.11090000  0.75767000  1
  H  H23  1  0.81210000  0.70120000  0.40900000  1
  H  H24  1  0.77330000  0.81250000  0.51670000  1
  H  H25  1  0.77330000  0.96080000  0.64997000  1
  H  H26  1  0.77230000  0.38615000  0.08333000  1
  H  H27  1  0.73100000  0.12010000  0.34863000  1
  H  H28  1  0.73100000  0.61090000  0.81803000  1
  H  H29  1  0.72220000  0.17770000  0.77317000  1
  H  H30  1  0.72220000  0.54450000  0.39350000  1
  H  H31  1  0.70120000  0.81210000  0.92433000  1
  H  H32  1  0.70120000  0.88910000  0.24233000  1
  H  H33  1  0.67490000  0.01730000  0.17567000  1
  H  H34  1  0.67490000  0.65760000  0.99100000  1
  H  H35  1  0.65760000  0.67490000  0.34233000  1
  H  H36  1  0.65760000  0.98270000  0.82433000  1
  H  H37  1  0.62060000  0.14900000  0.39103000  1
  H  H38  1  0.62060000  0.47160000  0.77563000  1
  H  H39  1  0.61385000  0.22770000  0.75000000  1
  H  H40  1  0.61385000  0.38615000  0.41667000  1
  H  H41  1  0.61310000  0.11540000  0.16587000  1
  H  H42  1  0.61310000  0.49770000  0.00080000  1
  H  H43  1  0.61090000  0.73100000  0.51530000  1
  H  H44  1  0.61090000  0.87990000  0.65137000  1
  H  H45  1  0.54450000  0.72220000  0.93983000  1
  H  H46  1  0.54450000  0.82230000  0.22683000  1
  H  H47  1  0.52840000  0.14900000  0.10897000  1
  H  H48  1  0.52840000  0.37940000  0.05770000  1
  H  H49  1  0.50230000  0.11540000  0.33413000  1
  H  H50  1  0.50230000  0.38690000  0.83253000  1
  H  H51  1  0.49770000  0.61310000  0.33253000  1
  H  H52  1  0.49770000  0.88460000  0.83413000  1
  H  H53  1  0.47160000  0.62060000  0.55770000  1
  H  H54  1  0.47160000  0.85100000  0.60897000  1
  H  H55  1  0.45550000  0.17770000  0.72683000  1
  H  H56  1  0.45550000  0.27780000  0.43983000  1
  H  H57  1  0.38910000  0.12010000  0.15137000  1
  H  H58  1  0.38910000  0.26900000  0.01530000  1
  H  H59  1  0.38690000  0.50230000  0.50080000  1
  H  H60  1  0.38690000  0.88460000  0.66587000  1
  H  H61  1  0.38615000  0.61385000  0.91667000  1
  H  H62  1  0.38615000  0.77230000  0.25000000  1
  H  H63  1  0.37940000  0.52840000  0.27563000  1
  H  H64  1  0.37940000  0.85100000  0.89103000  1
  H  H65  1  0.34240000  0.01730000  0.32433000  1
  H  H66  1  0.34240000  0.32510000  0.84233000  1
  H  H67  1  0.32510000  0.34240000  0.49100000  1
  H  H68  1  0.32510000  0.98270000  0.67567000  1
  H  H69  1  0.29880000  0.11090000  0.74233000  1
  H  H70  1  0.29880000  0.18790000  0.42433000  1
  H  H71  1  0.27780000  0.45550000  0.89350000  1
  H  H72  1  0.27780000  0.82230000  0.27317000  1
  H  H73  1  0.26900000  0.38910000  0.31803000  1
  H  H74  1  0.26900000  0.87990000  0.84863000  1
  H  H75  1  0.22770000  0.61385000  0.58333000  1
  H  H76  1  0.22670000  0.03920000  0.14997000  1
  H  H77  1  0.22670000  0.18750000  0.01670000  1
  H  H78  1  0.18790000  0.29880000  0.90900000  1
  H  H79  1  0.18790000  0.88910000  0.25767000  1
  H  H80  1  0.18750000  0.22670000  0.31663000  1
  H  H81  1  0.18750000  0.96080000  0.85003000  1
  H  H82  1  0.17770000  0.45550000  0.60650000  1
  H  H83  1  0.17770000  0.72220000  0.56017000  1
  H  H84  1  0.14900000  0.52840000  0.22437000  1
  H  H85  1  0.14900000  0.62060000  0.94230000  1
  H  H86  1  0.12010000  0.38910000  0.18197000  1
  H  H87  1  0.12010000  0.73100000  0.98470000  1
  H  H88  1  0.11540000  0.50230000  0.99920000  1
  H  H89  1  0.11540000  0.61310000  0.16747000  1
  H  H90  1  0.11090000  0.29880000  0.59100000  1
  H  H91  1  0.11090000  0.81210000  0.57567000  1
  H  H92  1  0.03920000  0.22670000  0.18337000  1
  H  H93  1  0.03920000  0.81250000  0.98330000  1
  H  H94  1  0.01730000  0.34240000  0.00900000  1
  H  H95  1  0.01730000  0.67490000  0.15767000  1
  C  C96  1  0.97610000  0.17570000  0.70297000  1
  C  C97  1  0.97610000  0.80040000  0.46370000  1
  C  C98  1  0.94735000  0.05265000  0.41667000  1
  C  C99  1  0.94735000  0.89470000  0.75000000  1
  C  C100  1  0.93020000  0.29520000  0.68077000  1
  C  C101  1  0.93020000  0.63500000  0.48590000  1
  C  C102  1  0.91440000  0.17410000  0.45660000  1
  C  C103  1  0.91440000  0.74030000  0.71007000  1
  C  C104  1  0.91070000  0.21370000  0.70817000  1
  C  C105  1  0.91070000  0.69700000  0.45850000  1
  C  C106  1  0.89485000  0.10515000  0.41667000  1
  C  C107  1  0.89485000  0.78970000  0.75000000  1
  C  C108  1  0.89470000  0.94735000  0.58333000  1
  C  C109  1  0.87170000  0.33310000  0.68737000  1
  C  C110  1  0.87170000  0.53860000  0.47930000  1
  C  C111  1  0.86660000  0.22330000  0.45760000  1
  C  C112  1  0.86660000  0.64330000  0.70907000  1
  C  C113  1  0.83150000  0.17110000  0.09207000  1
  C  C114  1  0.83150000  0.66040000  0.07460000  1
  C  C115  1  0.82890000  0.16850000  0.74127000  1
  C  C116  1  0.82890000  0.66040000  0.42540000  1
  C  C117  1  0.82590000  0.08560000  0.37673000  1
  C  C118  1  0.82590000  0.74030000  0.78993000  1
  C  C119  1  0.82430000  0.02390000  0.13037000  1
  C  C120  1  0.82430000  0.80040000  0.03630000  1
  C  C121  1  0.80040000  0.82430000  0.29703000  1
  C  C122  1  0.80040000  0.97610000  0.86963000  1
  C  C123  1  0.79735000  0.20265000  0.41667000  1
  C  C124  1  0.79735000  0.59470000  0.75000000  1
  C  C125  1  0.79550000  0.29310000  0.72257000  1
  C  C126  1  0.79550000  0.50240000  0.44410000  1
  C  C127  1  0.79280000  0.22590000  0.08377000  1
  C  C128  1  0.79280000  0.56690000  0.08290000  1
  C  C129  1  0.78970000  0.89485000  0.58333000  1
  C  C130  1  0.78830000  0.34980000  0.43130000  1
  C  C131  1  0.78830000  0.43850000  0.73537000  1
  C  C132  1  0.78630000  0.08930000  0.12517000  1
  C  C133  1  0.78630000  0.69700000  0.04150000  1
  C  C134  1  0.77670000  0.13340000  0.37573000  1
  C  C135  1  0.77670000  0.64330000  0.79093000  1
  C  C136  1  0.77410000  0.20720000  0.74957000  1
  C  C137  1  0.77410000  0.56690000  0.41710000  1
  C  C138  1  0.74425000  0.25575000  0.41667000  1
  C  C139  1  0.74425000  0.48850000  0.75000000  1
  C  C140  1  0.74350000  0.34210000  0.73637000  1
  C  C141  1  0.74350000  0.40140000  0.43030000  1
  C  C142  1  0.74030000  0.82590000  0.54340000  1
  C  C143  1  0.74030000  0.91440000  0.62327000  1
  C  C144  1  0.70690000  0.20450000  0.11077000  1
  C  C145  1  0.70690000  0.35345000  0.08333000  1
  C  C146  1  0.70690000  0.50240000  0.05590000  1
  C  C147  1  0.70480000  0.06980000  0.15257000  1
  C  C148  1  0.70480000  0.63500000  0.01410000  1
  C  C149  1  0.69700000  0.78630000  0.29183000  1
  C  C150  1  0.69700000  0.91070000  0.87483000  1
  C  C151  1  0.66690000  0.12830000  0.14597000  1
  C  C152  1  0.66690000  0.53860000  0.02070000  1
  C  C153  1  0.66040000  0.82890000  0.90793000  1
  C  C154  1  0.66040000  0.83150000  0.25873000  1
  C  C155  1  0.65790000  0.25650000  0.09697000  1
  C  C156  1  0.65790000  0.40140000  0.06970000  1
  C  C157  1  0.65020000  0.21170000  0.40203000  1
  C  C158  1  0.65020000  0.43850000  0.76463000  1
  C  C159  1  0.64655000  0.29310000  0.75000000  1
  C  C160  1  0.64655000  0.35345000  0.41667000  1
  C  C161  1  0.64330000  0.77670000  0.54240000  1
  C  C162  1  0.64330000  0.86660000  0.62427000  1
  C  C163  1  0.63500000  0.70480000  0.31923000  1
  C  C164  1  0.63500000  0.93020000  0.84743000  1
  C  C165  1  0.59860000  0.25650000  0.40303000  1
  C  C166  1  0.59860000  0.34210000  0.76363000  1
  C  C167  1  0.59470000  0.79735000  0.58333000  1
  C  C168  1  0.56690000  0.77410000  0.91623000  1
  C  C169  1  0.56690000  0.79280000  0.25043000  1
  C  C170  1  0.56150000  0.21170000  0.09797000  1
  C  C171  1  0.56150000  0.34980000  0.06870000  1
  C  C172  1  0.53860000  0.66690000  0.31263000  1
  C  C173  1  0.53860000  0.87170000  0.85403000  1
  C  C174  1  0.51150000  0.25575000  0.08333000  1
  C  C175  1  0.50240000  0.70690000  0.27743000  1
  C  C176  1  0.50240000  0.79550000  0.88923000  1
  C  C177  1  0.49760000  0.20450000  0.38923000  1
  C  C178  1  0.49760000  0.29310000  0.77743000  1
  C  C179  1  0.48850000  0.74425000  0.58333000  1
  C  C180  1  0.46140000  0.12830000  0.35403000  1
  C  C181  1  0.46140000  0.33310000  0.81263000  1
  C  C182  1  0.43850000  0.65020000  0.56870000  1
  C  C183  1  0.43850000  0.78830000  0.59797000  1
  C  C184  1  0.43310000  0.20720000  0.75043000  1
  C  C185  1  0.43310000  0.22590000  0.41623000  1
  C  C186  1  0.40530000  0.20265000  0.08333000  1
  C  C187  1  0.40140000  0.65790000  0.26363000  1
  C  C188  1  0.40140000  0.74350000  0.90303000  1
  C  C189  1  0.36500000  0.06980000  0.34743000  1
  C  C190  1  0.36500000  0.29520000  0.81923000  1
  C  C191  1  0.35670000  0.13340000  0.12427000  1
  C  C192  1  0.35670000  0.22330000  0.04240000  1
  C  C193  1  0.35345000  0.64655000  0.91667000  1
  C  C194  1  0.35345000  0.70690000  0.25000000  1
  C  C195  1  0.34980000  0.56150000  0.26463000  1
  C  C196  1  0.34980000  0.78830000  0.90203000  1
  C  C197  1  0.34210000  0.59860000  0.56970000  1
  C  C198  1  0.34210000  0.74350000  0.59697000  1
  C  C199  1  0.33960000  0.16850000  0.75873000  1
  C  C200  1  0.33960000  0.17110000  0.40793000  1
  C  C201  1  0.33310000  0.46140000  0.52070000  1
  C  C202  1  0.33310000  0.87170000  0.64597000  1
  C  C203  1  0.30300000  0.08930000  0.37483000  1
  C  C204  1  0.30300000  0.21370000  0.79183000  1
  C  C205  1  0.29520000  0.36500000  0.51410000  1
  C  C206  1  0.29520000  0.93020000  0.65257000  1
  C  C207  1  0.29310000  0.49760000  0.55590000  1
  C  C208  1  0.29310000  0.64655000  0.58333000  1
  C  C209  1  0.29310000  0.79550000  0.61077000  1
  C  C210  1  0.25970000  0.08560000  0.12327000  1
  C  C211  1  0.25970000  0.17410000  0.04340000  1
  C  C212  1  0.25650000  0.59860000  0.93030000  1
  C  C213  1  0.25650000  0.65790000  0.23637000  1
  C  C214  1  0.25575000  0.51150000  0.25000000  1
  C  C215  1  0.25575000  0.74425000  0.91667000  1
  C  C216  1  0.22590000  0.43310000  0.91710000  1
  C  C217  1  0.22590000  0.79280000  0.24957000  1
  C  C218  1  0.22330000  0.35670000  0.29093000  1
  C  C219  1  0.22330000  0.86660000  0.87573000  1
  C  C220  1  0.21370000  0.30300000  0.54150000  1
  C  C221  1  0.21370000  0.91070000  0.62517000  1
  C  C222  1  0.21170000  0.56150000  0.23537000  1
  C  C223  1  0.21170000  0.65020000  0.93130000  1
  C  C224  1  0.21030000  0.10515000  0.08333000  1
  C  C225  1  0.20720000  0.43310000  0.58290000  1
  C  C226  1  0.20720000  0.77410000  0.58377000  1
  C  C227  1  0.20450000  0.49760000  0.94410000  1
  C  C228  1  0.20450000  0.70690000  0.22257000  1
  C  C229  1  0.20265000  0.40530000  0.25000000  1
  C  C230  1  0.20265000  0.79735000  0.91667000  1
  C  C231  1  0.19960000  0.02390000  0.36963000  1
  C  C232  1  0.19960000  0.17570000  0.79703000  1
  C  C233  1  0.17570000  0.19960000  0.53630000  1
  C  C234  1  0.17570000  0.97610000  0.63037000  1
  C  C235  1  0.17410000  0.25970000  0.28993000  1
  C  C236  1  0.17410000  0.91440000  0.87673000  1
  C  C237  1  0.17110000  0.33960000  0.92540000  1
  C  C238  1  0.17110000  0.83150000  0.24127000  1
  C  C239  1  0.16850000  0.33960000  0.57460000  1
  C  C240  1  0.16850000  0.82890000  0.59207000  1
  C  C241  1  0.13340000  0.35670000  0.20907000  1
  C  C242  1  0.13340000  0.77670000  0.95760000  1
  C  C243  1  0.12830000  0.46140000  0.97930000  1
  C  C244  1  0.12830000  0.66690000  0.18737000  1
  C  C245  1  0.10530000  0.05265000  0.08333000  1
  C  C246  1  0.10515000  0.21030000  0.25000000  1
  C  C247  1  0.10515000  0.89485000  0.91667000  1
  C  C248  1  0.08930000  0.30300000  0.95850000  1
  C  C249  1  0.08930000  0.78630000  0.20817000  1
  C  C250  1  0.08560000  0.25970000  0.21007000  1
  C  C251  1  0.08560000  0.82590000  0.95660000  1
  C  C252  1  0.06980000  0.36500000  0.98590000  1
  C  C253  1  0.06980000  0.70480000  0.18077000  1
  C  C254  1  0.05265000  0.10530000  0.25000000  1
  C  C255  1  0.05265000  0.94735000  0.91667000  1
  C  C256  1  0.02390000  0.19960000  0.96370000  1
  C  C257  1  0.02390000  0.82430000  0.20297000  1
  O  O258  1  0.99430000  0.06520000  0.21113000  1
  O  O259  1  0.99430000  0.92910000  0.95554000  1
  O  O260  1  0.96690000  0.10890000  0.73503000  1
  O  O261  1  0.96690000  0.85800000  0.43164000  1
  O  O262  1  0.95900000  0.16920000  0.99790000  1
  O  O263  1  0.95900000  0.78980000  0.16877000  1
  O  O264  1  0.93480000  0.00570000  0.62221000  1
  O  O265  1  0.93480000  0.92910000  0.54446000  1
  O  O266  1  0.92910000  0.93480000  0.78887000  1
  O  O267  1  0.92910000  0.99430000  0.37779000  1
  O  O268  1  0.89110000  0.03310000  0.09831000  1
  O  O269  1  0.89110000  0.85800000  0.06836000  1
  O  O270  1  0.85800000  0.89110000  0.26497000  1
  O  O271  1  0.85800000  0.96690000  0.90169000  1
  O  O272  1  0.83080000  0.04100000  0.83543000  1
  O  O273  1  0.83080000  0.78980000  0.33123000  1
  O  O274  1  0.78980000  0.83080000  0.00210000  1
  O  O275  1  0.78980000  0.95900000  0.16457000  1
  O  O276  1  0.21020000  0.04100000  0.66457000  1
  O  O277  1  0.21020000  0.16920000  0.50210000  1
  O  O278  1  0.16920000  0.21020000  0.83123000  1
  O  O279  1  0.16920000  0.95900000  0.33543000  1
  O  O280  1  0.14200000  0.03310000  0.40169000  1
  O  O281  1  0.14200000  0.10890000  0.76497000  1
  O  O282  1  0.10890000  0.14200000  0.56836000  1
  O  O283  1  0.10890000  0.96690000  0.59831000  1
  O  O284  1  0.07090000  0.00570000  0.87779000  1
  O  O285  1  0.07090000  0.06520000  0.28887000  1
  O  O286  1  0.06520000  0.07090000  0.04446000  1
  O  O287  1  0.06520000  0.99430000  0.12221000  1
  O  O288  1  0.04100000  0.21020000  0.66877000  1
  O  O289  1  0.04100000  0.83080000  0.49790000  1
  O  O290  1  0.03310000  0.14200000  0.93164000  1
  O  O291  1  0.03310000  0.89110000  0.23503000  1
  O  O292  1  0.00570000  0.07090000  0.45554000  1
  O  O293  1  0.00570000  0.93480000  0.71113000  1
