# generated using pymatgen
data_CdH26(C11O4)3
_symmetry_space_group_name_H-M   'P 1'
_cell_length_a   16.28450000
_cell_length_b   16.28450000
_cell_length_c   27.63900000
_cell_angle_alpha   85.56360000
_cell_angle_beta   85.56360000
_cell_angle_gamma   71.75330000
_symmetry_Int_Tables_number   1
_chemical_formula_structural   CdH26(C11O4)3
_chemical_formula_sum   'Cd4 H104 C132 O48'
_cell_volume   6929.11008604
_cell_formula_units_Z   4
loop_
 _symmetry_equiv_pos_site_id
 _symmetry_equiv_pos_as_xyz
  1  'x, y, z'
loop_
 _atom_site_type_symbol
 _atom_site_label
 _atom_site_symmetry_multiplicity
 _atom_site_fract_x
 _atom_site_fract_y
 _atom_site_fract_z
 _atom_site_occupancy
  Cd  Cd0  1  0.33785000  0.91127000  0.68904000  1
  Cd  Cd1  1  0.08873000  0.66215000  0.81096000  1
  Cd  Cd2  1  0.91127000  0.33785000  0.18904000  1
  Cd  Cd3  1  0.66215000  0.08873000  0.31096000  1
  H  H4  1  0.25280000  0.99180000  0.09990000  1
  H  H5  1  0.97110000  0.98850000  0.78810000  1
  H  H6  1  0.98850000  0.97110000  0.28810000  1
  H  H7  1  0.74830000  0.93370000  0.33560000  1
  H  H8  1  0.45810000  0.91410000  0.31610000  1
  H  H9  1  0.61650000  0.89990000  0.19330000  1
  H  H10  1  0.12700000  0.87540000  0.19660000  1
  H  H11  1  0.12460000  0.87300000  0.30340000  1
  H  H12  1  0.84680000  0.87100000  0.88260000  1
  H  H13  1  0.40490000  0.86710000  0.51800000  1
  H  H14  1  0.87100000  0.84680000  0.38260000  1
  H  H15  1  0.38980000  0.82800000  0.28230000  1
  H  H16  1  0.40740000  0.81260000  0.44270000  1
  H  H17  1  0.49890000  0.80850000  0.72420000  1
  H  H18  1  0.54670000  0.80730000  0.16240000  1
  H  H19  1  0.42790000  0.79290000  0.13260000  1
  H  H20  1  0.25370000  0.77610000  0.34820000  1
  H  H21  1  0.26730000  0.77450000  0.19390000  1
  H  H22  1  0.35000000  0.75120000  0.07140000  1
  H  H23  1  0.93370000  0.74830000  0.83560000  1
  H  H24  1  0.00820000  0.74720000  0.40010000  1
  H  H25  1  0.22390000  0.74630000  0.15180000  1
  H  H26  1  0.22550000  0.73270000  0.30610000  1
  H  H27  1  0.35300000  0.71500000  0.99480000  1
  H  H28  1  0.29730000  0.71210000  0.92110000  1
  H  H29  1  0.28790000  0.70270000  0.57890000  1
  H  H30  1  0.48710000  0.69790000  0.14570000  1
  H  H31  1  0.35120000  0.68260000  0.81810000  1
  H  H32  1  0.40090000  0.68030000  0.33510000  1
  H  H33  1  0.41830000  0.65870000  0.07810000  1
  H  H34  1  0.24880000  0.65000000  0.42860000  1
  H  H35  1  0.31740000  0.64880000  0.68190000  1
  H  H36  1  0.28500000  0.64700000  0.50520000  1
  H  H37  1  0.57080000  0.64580000  0.73480000  1
  H  H38  1  0.37230000  0.63430000  0.29430000  1
  H  H39  1  0.51720000  0.63120000  0.27590000  1
  H  H40  1  0.36570000  0.62770000  0.20570000  1
  H  H41  1  0.89990000  0.61650000  0.69330000  1
  H  H42  1  0.17200000  0.61020000  0.21770000  1
  H  H43  1  0.31970000  0.59910000  0.16490000  1
  H  H44  1  0.13290000  0.59510000  0.98200000  1
  H  H45  1  0.18740000  0.59260000  0.05730000  1
  H  H46  1  0.45000000  0.58980000  0.64260000  1
  H  H47  1  0.34130000  0.58170000  0.42190000  1
  H  H48  1  0.20710000  0.57210000  0.36740000  1
  H  H49  1  0.64580000  0.57080000  0.23480000  1
  H  H50  1  0.41020000  0.55000000  0.85740000  1
  H  H51  1  0.80730000  0.54670000  0.66240000  1
  H  H52  1  0.08590000  0.54190000  0.18390000  1
  H  H53  1  0.63120000  0.51720000  0.77590000  1
  H  H54  1  0.30210000  0.51290000  0.35430000  1
  H  H55  1  0.19150000  0.50110000  0.77580000  1
  H  H56  1  0.80850000  0.49890000  0.22420000  1
  H  H57  1  0.69790000  0.48710000  0.64570000  1
  H  H58  1  0.36880000  0.48280000  0.22410000  1
  H  H59  1  0.91410000  0.45810000  0.81610000  1
  H  H60  1  0.19270000  0.45330000  0.33760000  1
  H  H61  1  0.58980000  0.45000000  0.14260000  1
  H  H62  1  0.35420000  0.42920000  0.76520000  1
  H  H63  1  0.79290000  0.42790000  0.63260000  1
  H  H64  1  0.65870000  0.41830000  0.57810000  1
  H  H65  1  0.55000000  0.41020000  0.35740000  1
  H  H66  1  0.81260000  0.40740000  0.94270000  1
  H  H67  1  0.86710000  0.40490000  0.01800000  1
  H  H68  1  0.68030000  0.40090000  0.83510000  1
  H  H69  1  0.82800000  0.38980000  0.78230000  1
  H  H70  1  0.10010000  0.38350000  0.30670000  1
  H  H71  1  0.63430000  0.37230000  0.79430000  1
  H  H72  1  0.48280000  0.36880000  0.72410000  1
  H  H73  1  0.62770000  0.36570000  0.70570000  1
  H  H74  1  0.42920000  0.35420000  0.26520000  1
  H  H75  1  0.71500000  0.35300000  0.49480000  1
  H  H76  1  0.68260000  0.35120000  0.31810000  1
  H  H77  1  0.75120000  0.35000000  0.57140000  1
  H  H78  1  0.58170000  0.34130000  0.92190000  1
  H  H79  1  0.59910000  0.31970000  0.66490000  1
  H  H80  1  0.64880000  0.31740000  0.18190000  1
  H  H81  1  0.51290000  0.30210000  0.85430000  1
  H  H82  1  0.71210000  0.29730000  0.42110000  1
  H  H83  1  0.70270000  0.28790000  0.07890000  1
  H  H84  1  0.64700000  0.28500000  0.00520000  1
  H  H85  1  0.77450000  0.26730000  0.69390000  1
  H  H86  1  0.77610000  0.25370000  0.84820000  1
  H  H87  1  0.99180000  0.25280000  0.59990000  1
  H  H88  1  0.06630000  0.25170000  0.16440000  1
  H  H89  1  0.65000000  0.24880000  0.92860000  1
  H  H90  1  0.73270000  0.22550000  0.80610000  1
  H  H91  1  0.74630000  0.22390000  0.65180000  1
  H  H92  1  0.57210000  0.20710000  0.86740000  1
  H  H93  1  0.45330000  0.19270000  0.83760000  1
  H  H94  1  0.50110000  0.19150000  0.27580000  1
  H  H95  1  0.59260000  0.18740000  0.55730000  1
  H  H96  1  0.61020000  0.17200000  0.71770000  1
  H  H97  1  0.12900000  0.15320000  0.61740000  1
  H  H98  1  0.59510000  0.13290000  0.48200000  1
  H  H99  1  0.15320000  0.12900000  0.11740000  1
  H  H100  1  0.87540000  0.12700000  0.69660000  1
  H  H101  1  0.87300000  0.12460000  0.80340000  1
  H  H102  1  0.38350000  0.10010000  0.80670000  1
  H  H103  1  0.54190000  0.08590000  0.68390000  1
  H  H104  1  0.25170000  0.06630000  0.66440000  1
  H  H105  1  0.01150000  0.02890000  0.71190000  1
  H  H106  1  0.02890000  0.01150000  0.21190000  1
  H  H107  1  0.74720000  0.00820000  0.90010000  1
  C  C108  1  0.20740000  0.99540000  0.12300000  1
  C  C109  1  0.92500000  0.99220000  0.81080000  1
  C  C110  1  0.83590000  0.98210000  0.31950000  1
  C  C111  1  0.58750000  0.97610000  0.27790000  1
  C  C112  1  0.13350000  0.92510000  0.18010000  1
  C  C113  1  0.99220000  0.92500000  0.31080000  1
  C  C114  1  0.85280000  0.92140000  0.86650000  1
  C  C115  1  0.19850000  0.92110000  0.14700000  1
  C  C116  1  0.91730000  0.91830000  0.83340000  1
  C  C117  1  0.91830000  0.91730000  0.33333333  1
  C  C118  1  0.54340000  0.91340000  0.25880000  1
  C  C119  1  0.47600000  0.89320000  0.28540000  1
  C  C120  1  0.57250000  0.88430000  0.21130000  1
  C  C121  1  0.07490000  0.86650000  0.31990000  1
  C  C122  1  0.92140000  0.85280000  0.36650000  1
  C  C123  1  0.43580000  0.84200000  0.26550000  1
  C  C124  1  0.98210000  0.83590000  0.81950000  1
  C  C125  1  0.52950000  0.82950000  0.19280000  1
  C  C126  1  0.34250000  0.82690000  0.60380000  1
  C  C127  1  0.38050000  0.82310000  0.51520000  1
  C  C128  1  0.46590000  0.81070000  0.21880000  1
  C  C129  1  0.07890000  0.80150000  0.35300000  1
  C  C130  1  0.00460000  0.79260000  0.37700000  1
  C  C131  1  0.38160000  0.79120000  0.47000000  1
  C  C132  1  0.34390000  0.79070000  0.55650000  1
  C  C133  1  0.27030000  0.76810000  0.15920000  1
  C  C134  1  0.41520000  0.76400000  0.74420000  1
  C  C135  1  0.43140000  0.74040000  0.15265000  1
  C  C136  1  0.23190000  0.72970000  0.34080000  1
  C  C137  1  0.34310000  0.72630000  0.46600000  1
  C  C138  1  0.31070000  0.72590000  0.55120000  1
  C  C139  1  0.35800000  0.70560000  0.14297000  1
  C  C140  1  0.36164000  0.69524000  0.08905000  1
  C  C141  1  0.30860000  0.69160000  0.50710000  1
  C  C142  1  0.30840000  0.69140000  0.99290000  1
  C  C143  1  0.27410000  0.68930000  0.94880000  1
  C  C144  1  0.45500000  0.67960000  0.77310000  1
  C  C145  1  0.17310000  0.65750000  0.89620000  1
  C  C146  1  0.27370000  0.65690000  0.03400000  1
  C  C147  1  0.20930000  0.65610000  0.94350000  1
  C  C148  1  0.40740000  0.64920000  0.80940000  1
  C  C149  1  0.29440000  0.64200000  0.35703000  1
  C  C150  1  0.30476000  0.63836000  0.41095000  1
  C  C151  1  0.37960000  0.63300000  0.32889000  1
  C  C152  1  0.53900000  0.62700000  0.76010000  1
  C  C153  1  0.36700000  0.62040000  0.17111000  1
  C  C154  1  0.17690000  0.61950000  0.98480000  1
  C  C155  1  0.20880000  0.61840000  0.03000000  1
  C  C156  1  0.35080000  0.59260000  0.69060000  1
  C  C157  1  0.97610000  0.58750000  0.77790000  1
  C  C158  1  0.23600000  0.58480000  0.75580000  1
  C  C159  1  0.54990000  0.57430000  0.28360000  1
  C  C160  1  0.88430000  0.57250000  0.71130000  1
  C  C161  1  0.44250000  0.56970000  0.83260000  1
  C  C162  1  0.25960000  0.56860000  0.34735000  1
  C  C163  1  0.15800000  0.56420000  0.23450000  1
  C  C164  1  0.43030000  0.55750000  0.66740000  1
  C  C165  1  0.57430000  0.54990000  0.78360000  1
  C  C166  1  0.32040000  0.54500000  0.72690000  1
  C  C167  1  0.91340000  0.54340000  0.75880000  1
  C  C168  1  0.62700000  0.53900000  0.26010000  1
  C  C169  1  0.18930000  0.53410000  0.28120000  1
  C  C170  1  0.82950000  0.52950000  0.69280000  1
  C  C171  1  0.51910000  0.52430000  0.32000000  1
  C  C172  1  0.10680000  0.52400000  0.21460000  1
  C  C173  1  0.52430000  0.51910000  0.82000000  1
  C  C174  1  0.47570000  0.48090000  0.18000000  1
  C  C175  1  0.89320000  0.47600000  0.78540000  1
  C  C176  1  0.48090000  0.47570000  0.68000000  1
  C  C177  1  0.17050000  0.47050000  0.30720000  1
  C  C178  1  0.81070000  0.46590000  0.71880000  1
  C  C179  1  0.37300000  0.46100000  0.73990000  1
  C  C180  1  0.08660000  0.45660000  0.24120000  1
  C  C181  1  0.67960000  0.45500000  0.27310000  1
  C  C182  1  0.42570000  0.45010000  0.21640000  1
  C  C183  1  0.56970000  0.44250000  0.33260000  1
  C  C184  1  0.84200000  0.43580000  0.76550000  1
  C  C185  1  0.74040000  0.43140000  0.65265000  1
  C  C186  1  0.55750000  0.43030000  0.16740000  1
  C  C187  1  0.11570000  0.42750000  0.28870000  1
  C  C188  1  0.45010000  0.42570000  0.71640000  1
  C  C189  1  0.76400000  0.41520000  0.24420000  1
  C  C190  1  0.02390000  0.41250000  0.22210000  1
  C  C191  1  0.64920000  0.40740000  0.30940000  1
  C  C192  1  0.79120000  0.38160000  0.97000000  1
  C  C193  1  0.82310000  0.38050000  0.01520000  1
  C  C194  1  0.63300000  0.37960000  0.82889000  1
  C  C195  1  0.46100000  0.37300000  0.23990000  1
  C  C196  1  0.62040000  0.36700000  0.67111000  1
  C  C197  1  0.69524000  0.36164000  0.58905000  1
  C  C198  1  0.70560000  0.35800000  0.64297000  1
  C  C199  1  0.59260000  0.35080000  0.19060000  1
  C  C200  1  0.79070000  0.34390000  0.05650000  1
  C  C201  1  0.72630000  0.34310000  0.96600000  1
  C  C202  1  0.82690000  0.34250000  0.10380000  1
  C  C203  1  0.54500000  0.32040000  0.22690000  1
  C  C204  1  0.72590000  0.31070000  0.05120000  1
  C  C205  1  0.69160000  0.30860000  0.00710000  1
  C  C206  1  0.69140000  0.30840000  0.49290000  1
  C  C207  1  0.63836000  0.30476000  0.91095000  1
  C  C208  1  0.64200000  0.29440000  0.85703000  1
  C  C209  1  0.68930000  0.27410000  0.44880000  1
  C  C210  1  0.65690000  0.27370000  0.53400000  1
  C  C211  1  0.76810000  0.27030000  0.65920000  1
  C  C212  1  0.56860000  0.25960000  0.84735000  1
  C  C213  1  0.58480000  0.23600000  0.25580000  1
  C  C214  1  0.72970000  0.23190000  0.84080000  1
  C  C215  1  0.65610000  0.20930000  0.44350000  1
  C  C216  1  0.61840000  0.20880000  0.53000000  1
  C  C217  1  0.99540000  0.20740000  0.62300000  1
  C  C218  1  0.92110000  0.19850000  0.64700000  1
  C  C219  1  0.53410000  0.18930000  0.78120000  1
  C  C220  1  0.61950000  0.17690000  0.48480000  1
  C  C221  1  0.65750000  0.17310000  0.39620000  1
  C  C222  1  0.47050000  0.17050000  0.80720000  1
  C  C223  1  0.01790000  0.16410000  0.18050000  1
  C  C224  1  0.56420000  0.15800000  0.73450000  1
  C  C225  1  0.07860000  0.14720000  0.63350000  1
  C  C226  1  0.92510000  0.13350000  0.68010000  1
  C  C227  1  0.42750000  0.11570000  0.78870000  1
  C  C228  1  0.52400000  0.10680000  0.71460000  1
  C  C229  1  0.45660000  0.08660000  0.74120000  1
  C  C230  1  0.08170000  0.08270000  0.66660000  1
  C  C231  1  0.08270000  0.08170000  0.16660000  1
  C  C232  1  0.80150000  0.07890000  0.85300000  1
  C  C233  1  0.14720000  0.07860000  0.13350000  1
  C  C234  1  0.00780000  0.07500000  0.68920000  1
  C  C235  1  0.86650000  0.07490000  0.81990000  1
  C  C236  1  0.41250000  0.02390000  0.72210000  1
  C  C237  1  0.16410000  0.01790000  0.68050000  1
  C  C238  1  0.07500000  0.00780000  0.18920000  1
  C  C239  1  0.79260000  0.00460000  0.87700000  1
  O  O240  1  0.43591000  0.99891000  0.68040000  1
  O  O241  1  0.64140000  0.99800000  0.25100000  1
  O  O242  1  0.76901000  0.97221000  0.34610000  1
  O  O243  1  0.17332000  0.96172000  0.71046000  1
  O  O244  1  0.38536000  0.87856000  0.60781000  1
  O  O245  1  0.26260000  0.84800000  0.13367000  1
  O  O246  1  0.03828000  0.82668000  0.78954000  1
  O  O247  1  0.29614000  0.80774000  0.63869000  1
  O  O248  1  0.33792000  0.80512000  0.75357000  1
  O  O249  1  0.46112000  0.78864000  0.71038000  1
  O  O250  1  0.97221000  0.76901000  0.84610000  1
  O  O251  1  0.41990000  0.75850000  0.20434000  1
  O  O252  1  0.15200000  0.73740000  0.36633000  1
  O  O253  1  0.19226000  0.70386000  0.86131000  1
  O  O254  1  0.34367000  0.70327000  0.41899000  1
  O  O255  1  0.19488000  0.66208000  0.74643000  1
  O  O256  1  0.29673000  0.65633000  0.08101000  1
  O  O257  1  0.99800000  0.64140000  0.75100000  1
  O  O258  1  0.12144000  0.61464000  0.89219000  1
  O  O259  1  0.24150000  0.58010000  0.29566000  1
  O  O260  1  0.00109000  0.56409000  0.81960000  1
  O  O261  1  0.44739000  0.56099000  0.15566000  1
  O  O262  1  0.43901000  0.55261000  0.34434000  1
  O  O263  1  0.21136000  0.53888000  0.78962000  1
  O  O264  1  0.78864000  0.46112000  0.21038000  1
  O  O265  1  0.56099000  0.44739000  0.65566000  1
  O  O266  1  0.55261000  0.43901000  0.84434000  1
  O  O267  1  0.99891000  0.43591000  0.18040000  1
  O  O268  1  0.75850000  0.41990000  0.70434000  1
  O  O269  1  0.87856000  0.38536000  0.10781000  1
  O  O270  1  0.00200000  0.35860000  0.24900000  1
  O  O271  1  0.70327000  0.34367000  0.91899000  1
  O  O272  1  0.80512000  0.33792000  0.25357000  1
  O  O273  1  0.65633000  0.29673000  0.58101000  1
  O  O274  1  0.80774000  0.29614000  0.13869000  1
  O  O275  1  0.84800000  0.26260000  0.63367000  1
  O  O276  1  0.58010000  0.24150000  0.79566000  1
  O  O277  1  0.02779000  0.23099000  0.15390000  1
  O  O278  1  0.53888000  0.21136000  0.28962000  1
  O  O279  1  0.66208000  0.19488000  0.24643000  1
  O  O280  1  0.70386000  0.19226000  0.36131000  1
  O  O281  1  0.96172000  0.17332000  0.21046000  1
  O  O282  1  0.73740000  0.15200000  0.86633000  1
  O  O283  1  0.61464000  0.12144000  0.39219000  1
  O  O284  1  0.82668000  0.03828000  0.28954000  1
  O  O285  1  0.23099000  0.02779000  0.65390000  1
  O  O286  1  0.35860000  0.00200000  0.74900000  1
  O  O287  1  0.56409000  0.00109000  0.31960000  1
