# generated using pymatgen
data_U2Co(C6O7)2
_symmetry_space_group_name_H-M   'P 1'
_cell_length_a   6.80610000
_cell_length_b   8.24680000
_cell_length_c   9.09560000
_cell_angle_alpha   103.82400000
_cell_angle_beta   94.82300000
_cell_angle_gamma   102.71900000
_symmetry_Int_Tables_number   1
_chemical_formula_structural   U2Co(C6O7)2
_chemical_formula_sum   'U2 Co1 C12 O14'
_cell_volume   478.50927866
_cell_formula_units_Z   1
loop_
 _symmetry_equiv_pos_site_id
 _symmetry_equiv_pos_as_xyz
  1  'x, y, z'
loop_
 _atom_site_type_symbol
 _atom_site_label
 _atom_site_symmetry_multiplicity
 _atom_site_fract_x
 _atom_site_fract_y
 _atom_site_fract_z
 _atom_site_occupancy
  U  U0  1  0.11287000  0.74819000  0.27496000  1
  U  U1  1  0.88713000  0.25181000  0.72504000  1
  Co  Co2  1  0.00000000  0.00000000  0.00000000  1
  C  C3  1  0.22110000  0.17800000  0.32500000  1
  C  C4  1  0.36540000  0.34320000  0.41590000  1
  C  C5  1  0.37350000  0.44860000  0.17550000  1
  C  C6  1  0.38010000  0.22930000  0.65250000  1
  C  C7  1  0.43220000  0.47500000  0.34520000  1
  C  C8  1  0.43580000  0.36820000  0.57090000  1
  C  C9  1  0.56420000  0.63180000  0.42910000  1
  C  C10  1  0.56780000  0.52500000  0.65480000  1
  C  C11  1  0.61990000  0.77070000  0.34750000  1
  C  C12  1  0.62650000  0.55140000  0.82450000  1
  C  C13  1  0.63460000  0.65680000  0.58410000  1
  C  C14  1  0.77890000  0.82200000  0.67500000  1
  O  O15  1  0.07600000  0.79640000  0.09370000  1
  O  O16  1  0.11740000  0.18010000  0.20560000  1
  O  O17  1  0.20340000  0.19320000  0.69010000  1
  O  O18  1  0.21430000  0.04700000  0.37600000  1
  O  O19  1  0.24440000  0.52690000  0.13770000  1
  O  O20  1  0.46020000  0.36080000  0.08630000  1
  O  O21  1  0.48450000  0.83910000  0.30820000  1
  O  O22  1  0.51550000  0.16090000  0.69180000  1
  O  O23  1  0.53980000  0.63920000  0.91370000  1
  O  O24  1  0.75560000  0.47310000  0.86230000  1
  O  O25  1  0.78570000  0.95300000  0.62400000  1
  O  O26  1  0.79660000  0.80680000  0.30990000  1
  O  O27  1  0.88260000  0.81990000  0.79440000  1
  O  O28  1  0.92400000  0.20360000  0.90630000  1
