# generated using pymatgen
data_CuH3(C5O2)2
_symmetry_space_group_name_H-M   'P 1'
_cell_length_a   17.38840000
_cell_length_b   17.38840000
_cell_length_c   17.38840000
_cell_angle_alpha   65.35440000
_cell_angle_beta   65.35440000
_cell_angle_gamma   65.35440000
_symmetry_Int_Tables_number   1
_chemical_formula_structural   CuH3(C5O2)2
_chemical_formula_sum   'Cu6 H18 C60 O24'
_cell_volume   4150.92517320
_cell_formula_units_Z   6
loop_
 _symmetry_equiv_pos_site_id
 _symmetry_equiv_pos_as_xyz
  1  'x, y, z'
loop_
 _atom_site_type_symbol
 _atom_site_label
 _atom_site_symmetry_multiplicity
 _atom_site_fract_x
 _atom_site_fract_y
 _atom_site_fract_z
 _atom_site_occupancy
  Cu  Cu0  1  0.99612000  0.99612000  0.42698000  1
  Cu  Cu1  1  0.42698000  0.99612000  0.99612000  1
  Cu  Cu2  1  0.00388000  0.57302000  0.00388000  1
  Cu  Cu3  1  0.99612000  0.42698000  0.99612000  1
  Cu  Cu4  1  0.57302000  0.00388000  0.00388000  1
  Cu  Cu5  1  0.00388000  0.00388000  0.57302000  1
  H  H6  1  0.49360000  0.97980000  0.27900000  1
  H  H7  1  0.27900000  0.97980000  0.49360000  1
  H  H8  1  0.26950000  0.97220000  0.26950000  1
  H  H9  1  0.73050000  0.73050000  0.02780000  1
  H  H10  1  0.02780000  0.73050000  0.73050000  1
  H  H11  1  0.50640000  0.72100000  0.02020000  1
  H  H12  1  0.02020000  0.72100000  0.50640000  1
  H  H13  1  0.72100000  0.50640000  0.02020000  1
  H  H14  1  0.02020000  0.50640000  0.72100000  1
  H  H15  1  0.97980000  0.49360000  0.27900000  1
  H  H16  1  0.27900000  0.49360000  0.97980000  1
  H  H17  1  0.97980000  0.27900000  0.49360000  1
  H  H18  1  0.49360000  0.27900000  0.97980000  1
  H  H19  1  0.97220000  0.26950000  0.26950000  1
  H  H20  1  0.26950000  0.26950000  0.97220000  1
  H  H21  1  0.73050000  0.02780000  0.73050000  1
  H  H22  1  0.72100000  0.02020000  0.50640000  1
  H  H23  1  0.50640000  0.02020000  0.72100000  1
  C  C24  1  0.47740000  0.99530000  0.47740000  1
  C  C25  1  0.43980000  0.98590000  0.43980000  1
  C  C26  1  0.39360000  0.98035000  0.39360000  1
  C  C27  1  0.43098000  0.97898000  0.16358000  1
  C  C28  1  0.16358000  0.97898000  0.43098000  1
  C  C29  1  0.43517000  0.97867000  0.30607000  1
  C  C30  1  0.30607000  0.97867000  0.43517000  1
  C  C31  1  0.38825000  0.97525000  0.25945000  1
  C  C32  1  0.25945000  0.97525000  0.38825000  1
  C  C33  1  0.30078000  0.97393000  0.30078000  1
  C  C34  1  0.56902000  0.83642000  0.02102000  1
  C  C35  1  0.02102000  0.83642000  0.56902000  1
  C  C36  1  0.61175000  0.74055000  0.02475000  1
  C  C37  1  0.02475000  0.74055000  0.61175000  1
  C  C38  1  0.69922000  0.69922000  0.02607000  1
  C  C39  1  0.02607000  0.69922000  0.69922000  1
  C  C40  1  0.56483000  0.69393000  0.02133000  1
  C  C41  1  0.02133000  0.69393000  0.56483000  1
  C  C42  1  0.74055000  0.61175000  0.02475000  1
  C  C43  1  0.02475000  0.61175000  0.74055000  1
  C  C44  1  0.60640000  0.60640000  0.01965000  1
  C  C45  1  0.01965000  0.60640000  0.60640000  1
  C  C46  1  0.83642000  0.56902000  0.02102000  1
  C  C47  1  0.02102000  0.56902000  0.83642000  1
  C  C48  1  0.69393000  0.56483000  0.02133000  1
  C  C49  1  0.02133000  0.56483000  0.69393000  1
  C  C50  1  0.56020000  0.56020000  0.01410000  1
  C  C51  1  0.01410000  0.56020000  0.56020000  1
  C  C52  1  0.52260000  0.52260000  0.00470000  1
  C  C53  1  0.00470000  0.52260000  0.52260000  1
  C  C54  1  0.99530000  0.47740000  0.47740000  1
  C  C55  1  0.47740000  0.47740000  0.99530000  1
  C  C56  1  0.98590000  0.43980000  0.43980000  1
  C  C57  1  0.43980000  0.43980000  0.98590000  1
  C  C58  1  0.97867000  0.43517000  0.30607000  1
  C  C59  1  0.30607000  0.43517000  0.97867000  1
  C  C60  1  0.97898000  0.43098000  0.16358000  1
  C  C61  1  0.16358000  0.43098000  0.97898000  1
  C  C62  1  0.98035000  0.39360000  0.39360000  1
  C  C63  1  0.39360000  0.39360000  0.98035000  1
  C  C64  1  0.97525000  0.38825000  0.25945000  1
  C  C65  1  0.25945000  0.38825000  0.97525000  1
  C  C66  1  0.97867000  0.30607000  0.43517000  1
  C  C67  1  0.43517000  0.30607000  0.97867000  1
  C  C68  1  0.97393000  0.30078000  0.30078000  1
  C  C69  1  0.30078000  0.30078000  0.97393000  1
  C  C70  1  0.97525000  0.25945000  0.38825000  1
  C  C71  1  0.38825000  0.25945000  0.97525000  1
  C  C72  1  0.97898000  0.16358000  0.43098000  1
  C  C73  1  0.43098000  0.16358000  0.97898000  1
  C  C74  1  0.69922000  0.02607000  0.69922000  1
  C  C75  1  0.74055000  0.02475000  0.61175000  1
  C  C76  1  0.61175000  0.02475000  0.74055000  1
  C  C77  1  0.69393000  0.02133000  0.56483000  1
  C  C78  1  0.56483000  0.02133000  0.69393000  1
  C  C79  1  0.83642000  0.02102000  0.56902000  1
  C  C80  1  0.56902000  0.02102000  0.83642000  1
  C  C81  1  0.60640000  0.01965000  0.60640000  1
  C  C82  1  0.56020000  0.01410000  0.56020000  1
  C  C83  1  0.52260000  0.00470000  0.52260000  1
  O  O84  1  0.50835000  0.98442000  0.13039000  1
  O  O85  1  0.13039000  0.98442000  0.50835000  1
  O  O86  1  0.38518000  0.97866000  0.12384000  1
  O  O87  1  0.12384000  0.97866000  0.38518000  1
  O  O88  1  0.61482000  0.87616000  0.02134000  1
  O  O89  1  0.02134000  0.87616000  0.61482000  1
  O  O90  1  0.49165000  0.86961000  0.01558000  1
  O  O91  1  0.01558000  0.86961000  0.49165000  1
  O  O92  1  0.87616000  0.61482000  0.02134000  1
  O  O93  1  0.02134000  0.61482000  0.87616000  1
  O  O94  1  0.98442000  0.50835000  0.13039000  1
  O  O95  1  0.13039000  0.50835000  0.98442000  1
  O  O96  1  0.86961000  0.49165000  0.01558000  1
  O  O97  1  0.01558000  0.49165000  0.86961000  1
  O  O98  1  0.97866000  0.38518000  0.12384000  1
  O  O99  1  0.12384000  0.38518000  0.97866000  1
  O  O100  1  0.98442000  0.13039000  0.50835000  1
  O  O101  1  0.50835000  0.13039000  0.98442000  1
  O  O102  1  0.97866000  0.12384000  0.38518000  1
  O  O103  1  0.38518000  0.12384000  0.97866000  1
  O  O104  1  0.87616000  0.02134000  0.61482000  1
  O  O105  1  0.61482000  0.02134000  0.87616000  1
  O  O106  1  0.86961000  0.01558000  0.49165000  1
  O  O107  1  0.49165000  0.01558000  0.86961000  1
