# generated using pymatgen
data_Mn3H57C51N8O9
_symmetry_space_group_name_H-M   'P 1'
_cell_length_a   17.44200000
_cell_length_b   30.13390000
_cell_length_c   30.13388065
_cell_angle_alpha   85.19539578
_cell_angle_beta   73.17752168
_cell_angle_gamma   73.17750000
_symmetry_Int_Tables_number   1
_chemical_formula_structural   Mn3H57C51N8O9
_chemical_formula_sum   'Mn24 H456 C408 N64 O72'
_cell_volume   14511.67325816
_cell_formula_units_Z   8
loop_
 _symmetry_equiv_pos_site_id
 _symmetry_equiv_pos_as_xyz
  1  'x, y, z'
loop_
 _atom_site_type_symbol
 _atom_site_label
 _atom_site_symmetry_multiplicity
 _atom_site_fract_x
 _atom_site_fract_y
 _atom_site_fract_z
 _atom_site_occupancy
  Mn  Mn0  1  0.58907000  0.41648000  0.35636000  1
  Mn  Mn1  1  0.28125000  0.92159000  0.50191000  1
  Mn  Mn2  1  0.24053000  0.61768000  0.53563000  1
  Mn  Mn3  1  0.64179000  0.46437000  0.11767000  1
  Mn  Mn4  1  0.29716000  0.49809000  0.42159000  1
  Mn  Mn5  1  0.78316000  0.99809000  0.92159000  1
  Mn  Mn6  1  0.70475000  0.57841000  0.99809000  1
  Mn  Mn7  1  0.60615000  0.11768000  0.03563000  1
  Mn  Mn8  1  0.05456000  0.85637000  0.58352000  1
  Mn  Mn9  1  0.22383000  0.03563000  0.38233000  1
  Mn  Mn10  1  0.50554000  0.35637000  0.08352000  1
  Mn  Mn11  1  0.36191000  0.08352000  0.14364000  1
  Mn  Mn12  1  0.63809000  0.91648000  0.85636000  1
  Mn  Mn13  1  0.49446000  0.64363000  0.91648000  1
  Mn  Mn14  1  0.77617000  0.96437000  0.61767000  1
  Mn  Mn15  1  0.94544000  0.14363000  0.41648000  1
  Mn  Mn16  1  0.39385000  0.88232000  0.96437000  1
  Mn  Mn17  1  0.29525000  0.42159000  0.00191000  1
  Mn  Mn18  1  0.21684000  0.00191000  0.07841000  1
  Mn  Mn19  1  0.70284000  0.50191000  0.57841000  1
  Mn  Mn20  1  0.35821000  0.53563000  0.88233000  1
  Mn  Mn21  1  0.75947000  0.38232000  0.46437000  1
  Mn  Mn22  1  0.71875000  0.07841000  0.49809000  1
  Mn  Mn23  1  0.41093000  0.58352000  0.64364000  1
  H  H24  1  0.88720000  0.87560000  0.10580000  1
  H  H25  1  0.92500000  0.21090000  0.06770000  1
  H  H26  1  0.13940000  0.94240000  0.85200000  1
  H  H27  1  0.52350000  0.38930000  0.46450000  1
  H  H28  1  0.10920000  0.79400000  0.87720000  1
  H  H29  1  0.66980000  0.21080000  0.31600000  1
  H  H30  1  0.34560000  0.97890000  0.64010000  1
  H  H31  1  0.87430000  0.35390000  0.09890000  1
  H  H32  1  0.98570000  0.85990000  0.97890000  1
  H  H33  1  0.45510000  0.41660000  0.50880000  1
  H  H34  1  0.44560000  0.34080000  0.51520000  1
  H  H35  1  0.04290000  0.98400000  0.91700000  1
  H  H36  1  0.77290000  0.40510000  0.18450000  1
  H  H37  1  0.47310000  0.08300000  0.48400000  1
  H  H38  1  0.39080000  0.47140000  0.56560000  1
  H  H39  1  0.58550000  0.15990000  0.36770000  1
  H  H40  1  0.95990000  0.58300000  0.98400000  1
  H  H41  1  0.50550000  0.31830000  0.43690000  1
  H  H42  1  0.93060000  0.48120000  0.01120000  1
  H  H43  1  0.17410000  0.92500000  0.76620000  1
  H  H44  1  0.37210000  0.84590000  0.56650000  1
  H  H45  1  0.99140000  0.64800000  0.94240000  1
  H  H46  1  0.91180000  0.01120000  0.01880000  1
  H  H47  1  0.81690000  0.15960000  0.11220000  1
  H  H48  1  0.87370000  0.88770000  0.05530000  1
  H  H49  1  0.49920000  0.72960000  0.42940000  1
  H  H50  1  0.09220000  0.55740000  0.83500000  1
  H  H51  1  0.28390000  0.47300000  0.64120000  1
  H  H52  1  0.63590000  0.06770000  0.28910000  1
  H  H53  1  0.19400000  0.89150000  0.72330000  1
  H  H54  1  0.82320000  0.85600000  0.09000000  1
  H  H55  1  0.42960000  0.26900000  0.48360000  1
  H  H56  1  0.42300000  0.01880000  0.48880000  1
  H  H57  1  0.07090000  0.61220000  0.84040000  1
  H  H58  1  0.48300000  0.80810000  0.42710000  1
  H  H59  1  0.85040000  0.16500000  0.05740000  1
  H  H60  1  0.47910000  0.57350000  0.42490000  1
  H  H61  1  0.30160000  0.40920000  0.60220000  1
  H  H62  1  0.65610000  0.40820000  0.24600000  1
  H  H63  1  0.59090000  0.28490000  0.30810000  1
  H  H64  1  0.49090000  0.24290000  0.40770000  1
  H  H65  1  0.81060000  0.27560000  0.08480000  1
  H  H66  1  0.75160000  0.92660000  0.14340000  1
  H  H67  1  0.79220000  0.95680000  0.10200000  1
  H  H68  1  0.59680000  0.12280000  0.29400000  1
  H  H69  1  0.22190000  0.58410000  0.66530000  1
  H  H70  1  0.26280000  0.10580000  0.62440000  1
  H  H71  1  0.04680000  0.86770000  0.84010000  1
  H  H72  1  0.31250000  0.98110000  0.57050000  1
  H  H73  1  0.18210000  0.97060000  0.70060000  1
  H  H74  1  0.23880000  0.80420000  0.63700000  1
  H  H75  1  0.72820000  0.09890000  0.14610000  1
  H  H76  1  0.26140000  0.05530000  0.61230000  1
  H  H77  1  0.39590000  0.69820000  0.47640000  1
  H  H78  1  0.99300000  0.39420000  0.87560000  1
  H  H79  1  0.36340000  0.37200000  0.50280000  1
  H  H80  1  0.32050000  0.50650000  0.54530000  1
  H  H81  1  0.94030000  0.73380000  0.92500000  1
  H  H82  1  0.88300000  0.92950000  0.98110000  1
  H  H83  1  0.41820000  0.14800000  0.44240000  1
  H  H84  1  0.10140000  0.90770000  0.75710000  1
  H  H85  1  0.88270000  0.79940000  0.97060000  1
  H  H86  1  0.89420000  0.39800000  0.95680000  1
  H  H87  1  0.51540000  0.05740000  0.33500000  1
  H  H88  1  0.42240000  0.34890000  0.42510000  1
  H  H89  1  0.48220000  0.62230000  0.36110000  1
  H  H90  1  0.27320000  0.43790000  0.55990000  1
  H  H91  1  0.21460000  0.50420000  0.61760000  1
  H  H92  1  0.23080000  0.74310000  0.59870000  1
  H  H93  1  0.10460000  0.58480000  0.72440000  1
  H  H94  1  0.43490000  0.55610000  0.39270000  1
  H  H95  1  0.40090000  0.23380000  0.42500000  1
  H  H96  1  0.96460000  0.52110000  0.85990000  1
  H  H97  1  0.41910000  0.65190000  0.40510000  1
  H  H98  1  0.17920000  0.09000000  0.64400000  1
  H  H99  1  0.17840000  0.42660000  0.64340000  1
  H  H100  1  0.89500000  0.35660000  0.92660000  1
  H  H101  1  0.23080000  0.35600000  0.59000000  1
  H  H102  1  0.34730000  0.29940000  0.47060000  1
  H  H103  1  0.08680000  0.98360000  0.73100000  1
  H  H104  1  0.47650000  0.11220000  0.34040000  1
  H  H105  1  0.92900000  0.44470000  0.88770000  1
  H  H106  1  0.10100000  0.80810000  0.71510000  1
  H  H107  1  0.58620000  0.08480000  0.22440000  1
  H  H108  1  0.91730000  0.77670000  0.89150000  1
  H  H109  1  0.41450000  0.27670000  0.39150000  1
  H  H110  1  0.15250000  0.92510000  0.65110000  1
  H  H111  1  0.01420000  0.81600000  0.78920000  1
  H  H112  1  0.81780000  0.76900000  0.98360000  1
  H  H113  1  0.00730000  0.56770000  0.78910000  1
  H  H114  1  0.86410000  0.51890000  0.92950000  1
  H  H115  1  0.24900000  0.10200000  0.54320000  1
  H  H116  1  0.71820000  0.69190000  0.07290000  1
  H  H117  1  0.27170000  0.74790000  0.51770000  1
  H  H118  1  0.68700000  0.90920000  0.10220000  1
  H  H119  1  0.72900000  0.93790000  0.05990000  1
  H  H120  1  0.78120000  0.38240000  0.00420000  1
  H  H121  1  0.93860000  0.93350000  0.84590000  1
  H  H122  1  0.66360000  0.00420000  0.11760000  1
  H  H123  1  0.98640000  0.62280000  0.79400000  1
  H  H124  1  0.69400000  0.33470000  0.08410000  1
  H  H125  1  0.67800000  0.18450000  0.09490000  1
  H  H126  1  0.91320000  0.41000000  0.85600000  1
  H  H127  1  0.52610000  0.40130000  0.24310000  1
  H  H128  1  0.85850000  0.74290000  0.90770000  1
  H  H129  1  0.76180000  0.87200000  0.00280000  1
  H  H130  1  0.56430000  0.67160000  0.19900000  1
  H  H131  1  0.13380000  0.00280000  0.62800000  1
  H  H132  1  0.45700000  0.36300000  0.30420000  1
  H  H133  1  0.88690000  0.65990000  0.86770000  1
  H  H134  1  0.17820000  0.14340000  0.57340000  1
  H  H135  1  0.14900000  0.45680000  0.60200000  1
  H  H136  1  0.41710000  0.78570000  0.33350000  1
  H  H137  1  0.60190000  0.97300000  0.14120000  1
  H  H138  1  0.05760000  0.93690000  0.68170000  1
  H  H139  1  0.18330000  0.38770000  0.55530000  1
  H  H140  1  0.13140000  0.37560000  0.60580000  1
  H  H141  1  0.43490000  0.82840000  0.30100000  1
  H  H142  1  0.16690000  0.05990000  0.56210000  1
  H  H143  1  0.65820000  0.77040000  0.07060000  1
  H  H144  1  0.80360000  0.84890000  0.92510000  1
  H  H145  1  0.48040000  0.48230000  0.24790000  1
  H  H146  1  0.32710000  0.14610000  0.40110000  1
  H  H147  1  0.78890000  0.44010000  0.93790000  1
  H  H148  1  0.41470000  0.67490000  0.30490000  1
  H  H149  1  0.91010000  0.07290000  0.80810000  1
  H  H150  1  0.78450000  0.65410000  0.93350000  1
  H  H151  1  0.74310000  0.35880000  0.97300000  1
  H  H152  1  0.69840000  0.84080000  0.01520000  1
  H  H153  1  0.36530000  0.61190000  0.34090000  1
  H  H154  1  0.48610000  0.71460000  0.22000000  1
  H  H155  1  0.53630000  0.71430000  0.16650000  1
  H  H156  1  0.35430000  0.70760000  0.34760000  1
  H  H157  1  0.42070000  0.78540000  0.28000000  1
  H  H158  1  0.78920000  0.39780000  0.90920000  1
  H  H159  1  0.03920000  0.01520000  0.65920000  1
  H  H160  1  0.55110000  0.61670000  0.14450000  1
  H  H161  1  0.52870000  0.08410000  0.16530000  1
  H  H162  1  0.09790000  0.74600000  0.59180000  1
  H  H163  1  0.30440000  0.64450000  0.38330000  1
  H  H164  1  0.20640000  0.42950000  0.48110000  1
  H  H165  1  0.09620000  0.10220000  0.59080000  1
  H  H166  1  0.29380000  0.84090000  0.38810000  1
  H  H167  1  0.87580000  0.86300000  0.80420000  1
  H  H168  1  0.67300000  0.45470000  0.00650000  1
  H  H169  1  0.36250000  0.09490000  0.31550000  1
  H  H170  1  0.73930000  0.81830000  0.93690000  1
  H  H171  1  0.62770000  0.00650000  0.04530000  1
  H  H172  1  0.02680000  0.59890000  0.64610000  1
  H  H173  1  0.38060000  0.31600000  0.28920000  1
  H  H174  1  0.31230000  0.88330000  0.35550000  1
  H  H175  1  0.16780000  0.11760000  0.49580000  1
  H  H176  1  0.92860000  0.07060000  0.72960000  1
  H  H177  1  0.56430000  0.24600000  0.09180000  1
  H  H178  1  0.17550000  0.35990000  0.47890000  1
  H  H179  1  0.85330000  0.52940000  0.79940000  1
  H  H180  1  0.43810000  0.65240000  0.20760000  1
  H  H181  1  0.57220000  0.97140000  0.06560000  1
  H  H182  1  0.04260000  0.68450000  0.59490000  1
  H  H183  1  0.76460000  0.49720000  0.87200000  1
  H  H184  1  0.20360000  0.28910000  0.43230000  1
  H  H185  1  0.52280000  0.65910000  0.11190000  1
  H  H186  1  0.61950000  0.91660000  0.00880000  1
  H  H187  1  0.28200000  0.43350000  0.34590000  1
  H  H188  1  0.13420000  0.04530000  0.49350000  1
  H  H189  1  0.81610000  0.78490000  0.80810000  1
  H  H190  1  0.01200000  0.96450000  0.61070000  1
  H  H191  1  0.03610000  0.00880000  0.58340000  1
  H  H192  1  0.80340000  0.71080000  0.81600000  1
  H  H193  1  0.17240000  0.89270000  0.44390000  1
  H  H194  1  0.63780000  0.43440000  0.97140000  1
  H  H195  1  0.28040000  0.80490000  0.32510000  1
  H  H196  1  0.46560000  0.87770000  0.13890000  1
  H  H197  1  0.40590000  0.52360000  0.19820000  1
  H  H198  1  0.07490000  0.14120000  0.52700000  1
  H  H199  1  0.86530000  0.57500000  0.73380000  1
  H  H200  1  0.21960000  0.29400000  0.37720000  1
  H  H201  1  0.57050000  0.80180000  0.02360000  1
  H  H202  1  0.37580000  0.30810000  0.21510000  1
  H  H203  1  0.29810000  0.84760000  0.29240000  1
  H  H204  1  0.39450000  0.82510000  0.19510000  1
  H  H205  1  0.62270000  0.88930000  0.96450000  1
  H  H206  1  0.17100000  0.22440000  0.41520000  1
  H  H207  1  0.80880000  0.60850000  0.77670000  1
  H  H208  1  0.24540000  0.36770000  0.34010000  1
  H  H209  1  0.41040000  0.69510000  0.17490000  1
  H  H210  1  0.29720000  0.66650000  0.28570000  1
  H  H211  1  0.93380000  0.55760000  0.64800000  1
  H  H212  1  0.42900000  0.59490000  0.15190000  1
  H  H213  1  0.29390000  0.72000000  0.28540000  1
  H  H214  1  0.72870000  0.57490000  0.84890000  1
  H  H215  1  0.05820000  0.51120000  0.51880000  1
  H  H216  1  0.82950000  0.90130000  0.74310000  1
  H  H217  1  0.04360000  0.06560000  0.52860000  1
  H  H218  1  0.47610000  0.84810000  0.09490000  1
  H  H219  1  0.87230000  0.02360000  0.69820000  1
  H  H220  1  0.80140000  0.51640000  0.76900000  1
  H  H221  1  0.23670000  0.69900000  0.32840000  1
  H  H222  1  0.50900000  0.60730000  0.05610000  1
  H  H223  1  0.73590000  0.19900000  0.82840000  1
  H  H224  1  0.31030000  0.09180000  0.25400000  1
  H  H225  1  0.40950000  0.79240000  0.15240000  1
  H  H226  1  0.71360000  0.48480000  0.84080000  1
  H  H227  1  0.47750000  0.92650000  0.07510000  1
  H  H228  1  0.66780000  0.14450000  0.88330000  1
  H  H229  1  0.62830000  0.49120000  0.91660000  1
  H  H230  1  0.68000000  0.69580000  0.86300000  1
  H  H231  1  0.78940000  0.98230000  0.74790000  1
  H  H232  1  0.75060000  0.16650000  0.78570000  1
  H  H233  1  0.15670000  0.86110000  0.37770000  1
  H  H234  1  0.11280000  0.16530000  0.41590000  1
  H  H235  1  0.94390000  0.51600000  0.58300000  1
  H  H236  1  0.42740000  0.24310000  0.09870000  1
  H  H237  1  0.17580000  0.90510000  0.34810000  1
  H  H238  1  0.91130000  0.65960000  0.61220000  1
  H  H239  1  0.41280000  0.46450000  0.11070000  1
  H  H240  1  0.68190000  0.11190000  0.84090000  1
  H  H241  1  0.09600000  0.92490000  0.42650000  1
  H  H242  1  0.44740000  0.57510000  0.07350000  1
  H  H243  1  0.53730000  0.75210000  0.98230000  1
  H  H244  1  0.39550000  0.63890000  0.12230000  1
  H  H245  1  0.20890000  0.57290000  0.30810000  1
  H  H246  1  0.07280000  0.33500000  0.44260000  1
  H  H247  1  0.29930000  0.78000000  0.21460000  1
  H  H248  1  0.76620000  0.59230000  0.74290000  1
  H  H249  1  0.61630000  0.05610000  0.89270000  1
  H  H250  1  0.32380000  0.43690000  0.18170000  1
  H  H251  1  0.27120000  0.57060000  0.22960000  1
  H  H252  1  0.72880000  0.42940000  0.77040000  1
  H  H253  1  0.67620000  0.56310000  0.81830000  1
  H  H254  1  0.38370000  0.94390000  0.10730000  1
  H  H255  1  0.23380000  0.40770000  0.25710000  1
  H  H256  1  0.70070000  0.22000000  0.78540000  1
  H  H257  1  0.92720000  0.66500000  0.55740000  1
  H  H258  1  0.79110000  0.42710000  0.69190000  1
  H  H259  1  0.60450000  0.36110000  0.87770000  1
  H  H260  1  0.46270000  0.24790000  0.01770000  1
  H  H261  1  0.55260000  0.42490000  0.92650000  1
  H  H262  1  0.90400000  0.07510000  0.57350000  1
  H  H263  1  0.31810000  0.88810000  0.15910000  1
  H  H264  1  0.58720000  0.53550000  0.88930000  1
  H  H265  1  0.08870000  0.34040000  0.38780000  1
  H  H266  1  0.82420000  0.09490000  0.65190000  1
  H  H267  1  0.57260000  0.75690000  0.90130000  1
  H  H268  1  0.05610000  0.48400000  0.41700000  1
  H  H269  1  0.88720000  0.83470000  0.58410000  1
  H  H270  1  0.84330000  0.13890000  0.62230000  1
  H  H271  1  0.24940000  0.83350000  0.21430000  1
  H  H272  1  0.21060000  0.01770000  0.25210000  1
  H  H273  1  0.32000000  0.30420000  0.13700000  1
  H  H274  1  0.37170000  0.50880000  0.08340000  1
  H  H275  1  0.33220000  0.85550000  0.11670000  1
  H  H276  1  0.52250000  0.07350000  0.92490000  1
  H  H277  1  0.28640000  0.51520000  0.15920000  1
  H  H278  1  0.59050000  0.20760000  0.84760000  1
  H  H279  1  0.68970000  0.90820000  0.74600000  1
  H  H280  1  0.26410000  0.80100000  0.17160000  1
  H  H281  1  0.49100000  0.39270000  0.94390000  1
  H  H282  1  0.76330000  0.30100000  0.67160000  1
  H  H283  1  0.19860000  0.48360000  0.23100000  1
  H  H284  1  0.12770000  0.97640000  0.30180000  1
  H  H285  1  0.52390000  0.15190000  0.90510000  1
  H  H286  1  0.95640000  0.93440000  0.47140000  1
  H  H287  1  0.17050000  0.09870000  0.25690000  1
  H  H288  1  0.94180000  0.48880000  0.48120000  1
  H  H289  1  0.27130000  0.42510000  0.15110000  1
  H  H290  1  0.70610000  0.28000000  0.71460000  1
  H  H291  1  0.57100000  0.40510000  0.84810000  1
  H  H292  1  0.06620000  0.44240000  0.35200000  1
  H  H293  1  0.70280000  0.33350000  0.71430000  1
  H  H294  1  0.58960000  0.30490000  0.82510000  1
  H  H295  1  0.75460000  0.63230000  0.65990000  1
  H  H296  1  0.19120000  0.39150000  0.22330000  1
  H  H297  1  0.82900000  0.77560000  0.58480000  1
  H  H298  1  0.37730000  0.11070000  0.03550000  1
  H  H299  1  0.60550000  0.17490000  0.80490000  1
  H  H300  1  0.70190000  0.15240000  0.70760000  1
  H  H301  1  0.62420000  0.69190000  0.78490000  1
  H  H302  1  0.42950000  0.19820000  0.97640000  1
  H  H303  1  0.78040000  0.70600000  0.62280000  1
  H  H304  1  0.13470000  0.42500000  0.26620000  1
  H  H305  1  0.92510000  0.85880000  0.47300000  1
  H  H306  1  0.59410000  0.47640000  0.80180000  1
  H  H307  1  0.53440000  0.12230000  0.86110000  1
  H  H308  1  0.71960000  0.19510000  0.67490000  1
  H  H309  1  0.36220000  0.56560000  0.02860000  1
  H  H310  1  0.82760000  0.10730000  0.55610000  1
  H  H311  1  0.19660000  0.28920000  0.18400000  1
  H  H312  1  0.96390000  0.99120000  0.41660000  1
  H  H313  1  0.98800000  0.03550000  0.38930000  1
  H  H314  1  0.18390000  0.21510000  0.19190000  1
  H  H315  1  0.86580000  0.95470000  0.50650000  1
  H  H316  1  0.71800000  0.56650000  0.65410000  1
  H  H317  1  0.38050000  0.08340000  0.99120000  1
  H  H318  1  0.47720000  0.34090000  0.88810000  1
  H  H319  1  0.79640000  0.71090000  0.56770000  1
  H  H320  1  0.23540000  0.50280000  0.12800000  1
  H  H321  1  0.95740000  0.31550000  0.40510000  1
  H  H322  1  0.42780000  0.02860000  0.93440000  1
  H  H323  1  0.56190000  0.34760000  0.79240000  1
  H  H324  1  0.14670000  0.47060000  0.20060000  1
  H  H325  1  0.82450000  0.64010000  0.52110000  1
  H  H326  1  0.43570000  0.75400000  0.90820000  1
  H  H327  1  0.07140000  0.92940000  0.27040000  1
  H  H328  1  0.83220000  0.88240000  0.50420000  1
  H  H329  1  0.68770000  0.11670000  0.64450000  1
  H  H330  1  0.61940000  0.68400000  0.71080000  1
  H  H331  1  0.97320000  0.40110000  0.35390000  1
  H  H332  1  0.37230000  0.99350000  0.95470000  1
  H  H333  1  0.26070000  0.18170000  0.06310000  1
  H  H334  1  0.63750000  0.90510000  0.68450000  1
  H  H335  1  0.32700000  0.54530000  0.99350000  1
  H  H336  1  0.12420000  0.13700000  0.19580000  1
  H  H337  1  0.70620000  0.15910000  0.61190000  1
  H  H338  1  0.90380000  0.89780000  0.40920000  1
  H  H339  1  0.79360000  0.57050000  0.51890000  1
  H  H340  1  0.69560000  0.35550000  0.61670000  1
  H  H341  1  0.90210000  0.25400000  0.40820000  1
  H  H342  1  0.47130000  0.91590000  0.83470000  1
  H  H343  1  0.44890000  0.38330000  0.85550000  1
  H  H344  1  0.96080000  0.98480000  0.34080000  1
  H  H345  1  0.21080000  0.60220000  0.09080000  1
  H  H346  1  0.57930000  0.21460000  0.72000000  1
  H  H347  1  0.64570000  0.29240000  0.65240000  1
  H  H348  1  0.46370000  0.28570000  0.83350000  1
  H  H349  1  0.51390000  0.28540000  0.78000000  1
  H  H350  1  0.63470000  0.38810000  0.65910000  1
  H  H351  1  0.30160000  0.15920000  0.98480000  1
  H  H352  1  0.25690000  0.64120000  0.02700000  1
  H  H353  1  0.21550000  0.34590000  0.06650000  1
  H  H354  1  0.08990000  0.92710000  0.19190000  1
  H  H355  1  0.58530000  0.32510000  0.69510000  1
  H  H356  1  0.21110000  0.55990000  0.06210000  1
  H  H357  1  0.67290000  0.85390000  0.59890000  1
  H  H358  1  0.51960000  0.51770000  0.75210000  1
  H  H359  1  0.19640000  0.15110000  0.07490000  1
  H  H360  1  0.34180000  0.22960000  0.92940000  1
  H  H361  1  0.83310000  0.94010000  0.43790000  1
  H  H362  1  0.56510000  0.17160000  0.69900000  1
  H  H363  1  0.86860000  0.62440000  0.39420000  1
  H  H364  1  0.81670000  0.61230000  0.44470000  1
  H  H365  1  0.94240000  0.06310000  0.31830000  1
  H  H366  1  0.39810000  0.02700000  0.85880000  1
  H  H367  1  0.58290000  0.21430000  0.66650000  1
  H  H368  1  0.85100000  0.54320000  0.39800000  1
  H  H369  1  0.82180000  0.85660000  0.42660000  1
  H  H370  1  0.11310000  0.34010000  0.13230000  1
  H  H371  1  0.54300000  0.63700000  0.69580000  1
  H  H372  1  0.86620000  0.99720000  0.37200000  1
  H  H373  1  0.43570000  0.32840000  0.80100000  1
  H  H374  1  0.23820000  0.12800000  0.99720000  1
  H  H375  1  0.14150000  0.25710000  0.09230000  1
  H  H376  1  0.47390000  0.59870000  0.75690000  1
  H  H377  1  0.08680000  0.59000000  0.14400000  1
  H  H378  1  0.32200000  0.81550000  0.90510000  1
  H  H379  1  0.30600000  0.66530000  0.91590000  1
  H  H380  1  0.01360000  0.37720000  0.20600000  1
  H  H381  1  0.33640000  0.99580000  0.88240000  1
  H  H382  1  0.06140000  0.06650000  0.15410000  1
  H  H383  1  0.21880000  0.61760000  0.99580000  1
  H  H384  1  0.27100000  0.06210000  0.94010000  1
  H  H385  1  0.31300000  0.09080000  0.89780000  1
  H  H386  1  0.72830000  0.25210000  0.48230000  1
  H  H387  1  0.28180000  0.30810000  0.92710000  1
  H  H388  1  0.75100000  0.89800000  0.45680000  1
  H  H389  1  0.13590000  0.48110000  0.07050000  1
  H  H390  1  0.99270000  0.43230000  0.21090000  1
  H  H391  1  0.18220000  0.23100000  0.01640000  1
  H  H392  1  0.98580000  0.18400000  0.21080000  1
  H  H393  1  0.84750000  0.07490000  0.34890000  1
  H  H394  1  0.58550000  0.72330000  0.60850000  1
  H  H395  1  0.08270000  0.22330000  0.10850000  1
  H  H396  1  0.41380000  0.91520000  0.77560000  1
  H  H397  1  0.89900000  0.19190000  0.28490000  1
  H  H398  1  0.07100000  0.55530000  0.11230000  1
  H  H399  1  0.52350000  0.88780000  0.65960000  1
  H  H400  1  0.91320000  0.01640000  0.26900000  1
  H  H401  1  0.65270000  0.70060000  0.52940000  1
  H  H402  1  0.76920000  0.64400000  0.41000000  1
  H  H403  1  0.10500000  0.64340000  0.07340000  1
  H  H404  1  0.82160000  0.57340000  0.35660000  1
  H  H405  1  0.82080000  0.91000000  0.35600000  1
  H  H406  1  0.58090000  0.34810000  0.59490000  1
  H  H407  1  0.03540000  0.47890000  0.14010000  1
  H  H408  1  0.59910000  0.76620000  0.57500000  1
  H  H409  1  0.56510000  0.44390000  0.60730000  1
  H  H410  1  0.89540000  0.41520000  0.27560000  1
  H  H411  1  0.76920000  0.25690000  0.40130000  1
  H  H412  1  0.78540000  0.49580000  0.38240000  1
  H  H413  1  0.72680000  0.56210000  0.44010000  1
  H  H414  1  0.51780000  0.37770000  0.63890000  1
  H  H415  1  0.57760000  0.65110000  0.57490000  1
  H  H416  1  0.48460000  0.94260000  0.66500000  1
  H  H417  1  0.10580000  0.60200000  0.04320000  1
  H  H418  1  0.11730000  0.20060000  0.02940000  1
  H  H419  1  0.89860000  0.09230000  0.24290000  1
  H  H420  1  0.58180000  0.85200000  0.55760000  1
  H  H421  1  0.11700000  0.07050000  0.01890000  1
  H  H422  1  0.05970000  0.26620000  0.07500000  1
  H  H423  1  0.67950000  0.49350000  0.45470000  1
  H  H424  1  0.63660000  0.62800000  0.49720000  1
  H  H425  1  0.00700000  0.60580000  0.12440000  1
  H  H426  1  0.60410000  0.30180000  0.52360000  1
  H  H427  1  0.73860000  0.94470000  0.38770000  1
  H  H428  1  0.27180000  0.90110000  0.85390000  1
  H  H429  1  0.76120000  0.19580000  0.36300000  1
  H  H430  1  0.81790000  0.02940000  0.29940000  1
  H  H431  1  0.68750000  0.01890000  0.42950000  1
  H  H432  1  0.95320000  0.13230000  0.15990000  1
  H  H433  1  0.73720000  0.89420000  0.37560000  1
  H  H434  1  0.77810000  0.41590000  0.33470000  1
  H  H435  1  0.40320000  0.87720000  0.70600000  1
  H  H436  1  0.20780000  0.04320000  0.89800000  1
  H  H437  1  0.24840000  0.07340000  0.85660000  1
  H  H438  1  0.18940000  0.72440000  0.91520000  1
  H  H439  1  0.50910000  0.75710000  0.59230000  1
  H  H440  1  0.40910000  0.71510000  0.69190000  1
  H  H441  1  0.34390000  0.59180000  0.75400000  1
  H  H442  1  0.69840000  0.59080000  0.39780000  1
  H  H443  1  0.52090000  0.42650000  0.57510000  1
  H  H444  1  0.14960000  0.83500000  0.94260000  1
  H  H445  1  0.51700000  0.19190000  0.57290000  1
  H  H446  1  0.92910000  0.38780000  0.15960000  1
  H  H447  1  0.57700000  0.98120000  0.51120000  1
  H  H448  1  0.57040000  0.73100000  0.51640000  1
  H  H449  1  0.17680000  0.14400000  0.91000000  1
  H  H450  1  0.80600000  0.10850000  0.27670000  1
  H  H451  1  0.36410000  0.93230000  0.71090000  1
  H  H452  1  0.71610000  0.52700000  0.35880000  1
  H  H453  1  0.90780000  0.44260000  0.16500000  1
  H  H454  1  0.50080000  0.27040000  0.57060000  1
  H  H455  1  0.12630000  0.11230000  0.94470000  1
  H  H456  1  0.18310000  0.84040000  0.88780000  1
  H  H457  1  0.08820000  0.98880000  0.98120000  1
  H  H458  1  0.00860000  0.35200000  0.05760000  1
  H  H459  1  0.62790000  0.15410000  0.43350000  1
  H  H460  1  0.82590000  0.07500000  0.23380000  1
  H  H461  1  0.06940000  0.51880000  0.98880000  1
  H  H462  1  0.49450000  0.68170000  0.56310000  1
  H  H463  1  0.04010000  0.41700000  0.01600000  1
  H  H464  1  0.41450000  0.84010000  0.63230000  1
  H  H465  1  0.60920000  0.52860000  0.43440000  1
  H  H466  1  0.52690000  0.91700000  0.51600000  1
  H  H467  1  0.22710000  0.59490000  0.81550000  1
  H  H468  1  0.95710000  0.01600000  0.08300000  1
  H  H469  1  0.55440000  0.65920000  0.48480000  1
  H  H470  1  0.54490000  0.58340000  0.49120000  1
  H  H471  1  0.01430000  0.14010000  0.02110000  1
  H  H472  1  0.12570000  0.64610000  0.90110000  1
  H  H473  1  0.65440000  0.02110000  0.35990000  1
  H  H474  1  0.33020000  0.78920000  0.68400000  1
  H  H475  1  0.89080000  0.20600000  0.12280000  1
  H  H476  1  0.47650000  0.61070000  0.53550000  1
  H  H477  1  0.86060000  0.05760000  0.14800000  1
  H  H478  1  0.07500000  0.78910000  0.93230000  1
  H  H479  1  0.11280000  0.12440000  0.89420000  1
  C  C480  1  0.90490000  0.19020000  0.09280000  1
  C  C481  1  0.32581000  0.76442000  0.66816000  1
  C  C482  1  0.77503000  0.40833000  0.21521000  1
  C  C483  1  0.60867000  0.13017000  0.37889000  1
  C  C484  1  0.01584000  0.58254000  0.96838000  1
  C  C485  1  0.90162000  0.03162000  0.08254000  1
  C  C486  1  0.63228000  0.31722000  0.34942000  1
  C  C487  1  0.03500000  0.62057000  0.94283000  1
  C  C488  1  0.35233000  0.95075000  0.62539000  1
  C  C489  1  0.61791000  0.09153000  0.35485000  1
  C  C490  1  0.88491000  0.38040000  0.08178000  1
  C  C491  1  0.84443000  0.05717000  0.12057000  1
  C  C492  1  0.70591000  0.40948000  0.25210000  1
  C  C493  1  0.62764000  0.27957000  0.32715000  1
  C  C494  1  0.91905000  0.45564000  0.02986000  1
  C  C495  1  0.36768000  0.87363000  0.58121000  1
  C  C496  1  0.35454000  0.53744000  0.59208000  1
  C  C497  1  0.46289000  0.40084000  0.47958000  1
  C  C498  1  0.02724000  0.85485000  0.90847000  1
  C  C499  1  0.31306000  0.69181000  0.62227000  1
  C  C500  1  0.84640000  0.88230000  0.08790000  1
  C  C501  1  0.15348000  0.58817000  0.77727000  1
  C  C502  1  0.97772000  0.87461000  0.95075000  1
  C  C503  1  0.83430000  0.18130000  0.08730000  1
  C  C504  1  0.22336000  0.58574000  0.69634000  1
  C  C505  1  0.87469000  0.02986000  0.04436000  1
  C  C506  1  0.33212000  0.95183000  0.58393000  1
  C  C507  1  0.42469000  0.35988000  0.49054000  1
  C  C508  1  0.33872000  0.49705000  0.57371000  1
  C  C509  1  0.27168000  0.77351000  0.64033000  1
  C  C510  1  0.59510000  0.09280000  0.30980000  1
  C  C511  1  0.43324000  0.08254000  0.46838000  1
  C  C512  1  0.81875000  0.41997000  0.08193000  1
  C  C513  1  0.30290000  0.65513000  0.59627000  1
  C  C514  1  0.07840000  0.58730000  0.81870000  1
  C  C515  1  0.44895000  0.74961000  0.44749000  1
  C  C516  1  0.15220000  0.91710000  0.74230000  1
  C  C517  1  0.44418000  0.32966000  0.44938000  1
  C  C518  1  0.83659000  0.45845000  0.05437000  1
  C  C519  1  0.26713000  0.73713000  0.61801000  1
  C  C520  1  0.43916000  0.79636000  0.44592000  1
  C  C521  1  0.15368000  0.58606000  0.73138000  1
  C  C522  1  0.76531000  0.08178000  0.11960000  1
  C  C523  1  0.01244000  0.87889000  0.86983000  1
  C  C524  1  0.26839000  0.47969000  0.61173000  1
  C  C525  1  0.77010000  0.92940000  0.10920000  1
  C  C526  1  0.40455000  0.04436000  0.47014000  1
  C  C527  1  0.42245000  0.43483000  0.44807000  1
  C  C528  1  0.91605000  0.91607000  0.95183000  1
  C  C529  1  0.40886000  0.28806000  0.45882000  1
  C  C530  1  0.38769000  0.73083000  0.47479000  1
  C  C531  1  0.25980000  0.43620000  0.59420000  1
  C  C532  1  0.43070000  0.25770000  0.41710000  1
  C  C533  1  0.75835000  0.22273000  0.08817000  1
  C  C534  1  0.22870000  0.08790000  0.61770000  1
  C  C535  1  0.76026000  0.26862000  0.08606000  1
  C  C536  1  0.40160000  0.12057000  0.44283000  1
  C  C537  1  0.13232000  0.95882000  0.71194000  1
  C  C538  1  0.42956000  0.58173000  0.41295000  1
  C  C539  1  0.36540000  0.82707000  0.47173000  1
  C  C540  1  0.79504000  0.05437000  0.04155000  1
  C  C541  1  0.51560000  0.08730000  0.31870000  1
  C  C542  1  0.94889000  0.91879000  0.87363000  1
  C  C543  1  0.77136000  0.49946000  0.04802000  1
  C  C544  1  0.73872000  0.08193000  0.08003000  1
  C  C545  1  0.93430000  0.41210000  0.88230000  1
  C  C546  1  0.31484000  0.76034000  0.49938000  1
  C  C547  1  0.00230000  0.59280000  0.80980000  1
  C  C548  1  0.42754000  0.62605000  0.38447000  1
  C  C549  1  0.89450000  0.75770000  0.91710000  1
  C  C550  1  0.87930000  0.39080000  0.92940000  1
  C  C551  1  0.35233000  0.58672000  0.45302000  1
  C  C552  1  0.70980000  0.93620000  0.09420000  1
  C  C553  1  0.84426000  0.78806000  0.95882000  1
  C  C554  1  0.92847000  0.54925000  0.87461000  1
  C  C555  1  0.19130000  0.42940000  0.60920000  1
  C  C556  1  0.30196000  0.80844000  0.49844000  1
  C  C557  1  0.34941000  0.04155000  0.44563000  1
  C  C558  1  0.93571000  0.59153000  0.85485000  1
  C  C559  1  0.86788000  0.54817000  0.91607000  1
  C  C560  1  0.44174000  0.47322000  0.33670000  1
  C  C561  1  0.10644000  0.94938000  0.67034000  1
  C  C562  1  0.69090000  0.30366000  0.08574000  1
  C  C563  1  0.68336000  0.21521000  0.09167000  1
  C  C564  1  0.77082000  0.04802000  0.00054000  1
  C  C565  1  0.18340000  0.38230000  0.58790000  1
  C  C566  1  0.31884000  0.00054000  0.45198000  1
  C  C567  1  0.19950000  0.10920000  0.57060000  1
  C  C568  1  0.04521000  0.82715000  0.72043000  1
  C  C569  1  0.34709000  0.11960000  0.41822000  1
  C  C570  1  0.88227000  0.63017000  0.87889000  1
  C  C571  1  0.52888000  0.08606000  0.23138000  1
  C  C572  1  0.99397000  0.83184000  0.76442000  1
  C  C573  1  0.48108000  0.08817000  0.27727000  1
  C  C574  1  0.64019000  0.97969000  0.11173000  1
  C  C575  1  0.22156000  0.83670000  0.52678000  1
  C  C576  1  0.82252000  0.62637000  0.91879000  1
  C  C577  1  0.80400000  0.40580000  0.93620000  1
  C  C578  1  0.32065000  0.08003000  0.41807000  1
  C  C579  1  0.68144000  0.70364000  0.05408000  1
  C  C580  1  0.49574000  0.38199000  0.23713000  1
  C  C581  1  0.75192000  0.38827000  0.97969000  1
  C  C582  1  0.45481000  0.35967000  0.27351000  1
  C  C583  1  0.77678000  0.82966000  0.94938000  1
  C  C584  1  0.08477000  0.99054000  0.64012000  1
  C  C585  1  0.35918000  0.63865000  0.35979000  1
  C  C586  1  0.72489000  0.85988000  0.99054000  1
  C  C587  1  0.40423000  0.80497000  0.30737000  1
  C  C588  1  0.14600000  0.09420000  0.56380000  1
  C  C589  1  0.51657000  0.69503000  0.19263000  1
  C  C590  1  0.61539000  0.25210000  0.09052000  1
  C  C591  1  0.01830000  0.84942000  0.68278000  1
  C  C592  1  0.64605000  0.75039000  0.05251000  1
  C  C593  1  0.38960000  0.50156000  0.30844000  1
  C  C594  1  0.54197000  0.40373000  0.15513000  1
  C  C595  1  0.12948000  0.94807000  0.56517000  1
  C  C596  1  0.66420000  0.67293000  0.02827000  1
  C  C597  1  0.49456000  0.08574000  0.19634000  1
  C  C598  1  0.36022000  0.68078000  0.32878000  1
  C  C599  1  0.49513000  0.37773000  0.19181000  1
  C  C600  1  0.91201000  0.85967000  0.77351000  1
  C  C601  1  0.42482000  0.50062000  0.26034000  1
  C  C602  1  0.39857000  0.09167000  0.28479000  1
  C  C603  1  0.88508000  0.05408000  0.79636000  1
  C  C604  1  0.18062000  0.54802000  0.50054000  1
  C  C605  1  0.09932000  0.58193000  0.58003000  1
  C  C606  1  0.40977000  0.33184000  0.26442000  1
  C  C607  1  0.21605000  0.41607000  0.45183000  1
  C  C608  1  0.59052000  0.99705000  0.07371000  1
  C  C609  1  0.83713000  0.02827000  0.82707000  1
  C  C610  1  0.66423000  0.42629000  0.99705000  1
  C  C611  1  0.05753000  0.97958000  0.59916000  1
  C  C612  1  0.03331000  0.58178000  0.61960000  1
  C  C613  1  0.10904000  0.55437000  0.54155000  1
  C  C614  1  0.56095000  0.54698000  0.08672000  1
  C  C615  1  0.19692000  0.37461000  0.45075000  1
  C  C616  1  0.89644000  0.05251000  0.74961000  1
  C  C617  1  0.60802000  0.40792000  0.03744000  1
  C  C618  1  0.69465000  0.93483000  0.94807000  1
  C  C619  1  0.28103000  0.85979000  0.36135000  1
  C  C620  1  0.50217000  0.64021000  0.13865000  1
  C  C621  1  0.11988000  0.11173000  0.52031000  1
  C  C622  1  0.45900000  0.67122000  0.18078000  1
  C  C623  1  0.65669000  0.90084000  0.97958000  1
  C  C624  1  0.30753000  0.52827000  0.32707000  1
  C  C625  1  0.04199000  0.75210000  0.59052000  1
  C  C626  1  0.25869000  0.41879000  0.37363000  1
  C  C627  1  0.44950000  0.34942000  0.18278000  1
  C  C628  1  0.31100000  0.82878000  0.31922000  1
  C  C629  1  0.40721000  0.32715000  0.22043000  1
  C  C630  1  0.93533000  0.87773000  0.69181000  1
  C  C631  1  0.88514000  0.88199000  0.73713000  1
  C  C632  1  0.59331000  0.76917000  0.02521000  1
  C  C633  1  0.20944000  0.35485000  0.40847000  1
  C  C634  1  0.36749000  0.09052000  0.24790000  1
  C  C635  1  0.38148000  0.52521000  0.23083000  1
  C  C636  1  0.60884000  0.69156000  0.00156000  1
  C  C637  1  0.80040000  0.00156000  0.80844000  1
  C  C638  1  0.23884000  0.37889000  0.36983000  1
  C  C639  1  0.51594000  0.03744000  0.09208000  1
  C  C640  1  0.19465000  0.95302000  0.41328000  1
  C  C641  1  0.00976000  0.71521000  0.59167000  1
  C  C642  1  0.97783000  0.55717000  0.62057000  1
  C  C643  1  0.29080000  0.69263000  0.30497000  1
  C  C644  1  0.05109000  0.52986000  0.54436000  1
  C  C645  1  0.18790000  0.30980000  0.40720000  1
  C  C646  1  0.86248000  0.02521000  0.73083000  1
  C  C647  1  0.76564000  0.77957000  0.82715000  1
  C  C648  1  0.80308000  0.54118000  0.78806000  1
  C  C649  1  0.08757000  0.07371000  0.50295000  1
  C  C650  1  0.75839000  0.73558000  0.83184000  1
  C  C651  1  0.74834000  0.97322000  0.83670000  1
  C  C652  1  0.64272000  0.55193000  0.93483000  1
  C  C653  1  0.15749000  0.91295000  0.41827000  1
  C  C654  1  0.71543000  0.50946000  0.85988000  1
  C  C655  1  0.57456000  0.73966000  0.00062000  1
  C  C656  1  0.81422000  0.00062000  0.76034000  1
  C  C657  1  0.44641000  0.61553000  0.12605000  1
  C  C658  1  0.48871000  0.58705000  0.08173000  1
  C  C659  1  0.81160000  0.58290000  0.75770000  1
  C  C660  1  0.98422000  0.53162000  0.58254000  1
  C  C661  1  0.18799000  0.88447000  0.37395000  1
  C  C662  1  0.60793000  0.08672000  0.95302000  1
  C  C663  1  0.26448000  0.55408000  0.29636000  1
  C  C664  1  0.58504000  0.66330000  0.97322000  1
  C  C665  1  0.72616000  0.55062000  0.82966000  1
  C  C666  1  0.89917000  0.90373000  0.65513000  1
  C  C667  1  0.43806000  0.87395000  0.11553000  1
  C  C668  1  0.30144000  0.55251000  0.24961000  1
  C  C669  1  0.70108000  0.81722000  0.84942000  1
  C  C670  1  0.68552000  0.72649000  0.85967000  1
  C  C671  1  0.44570000  0.15513000  0.09627000  1
  C  C672  1  0.36978000  0.81922000  0.17122000  1
  C  C673  1  0.63627000  0.52042000  0.90084000  1
  C  C674  1  0.11494000  0.23138000  0.41394000  1
  C  C675  1  0.93075000  0.72273000  0.58817000  1
  C  C676  1  0.71160000  0.19263000  0.80497000  1
  C  C677  1  0.05338000  0.09208000  0.46256000  1
  C  C678  1  0.10290000  0.31870000  0.41270000  1
  C  C679  1  0.42424000  0.91827000  0.08705000  1
  C  C680  1  0.91970000  0.80366000  0.58574000  1
  C  C681  1  0.62714000  0.80819000  0.87773000  1
  C  C682  1  0.62227000  0.76287000  0.88199000  1
  C  C683  1  0.64238000  0.13865000  0.85979000  1
  C  C684  1  0.35762000  0.86135000  0.14021000  1
  C  C685  1  0.37773000  0.23713000  0.11801000  1
  C  C686  1  0.37286000  0.19181000  0.12227000  1
  C  C687  1  0.08030000  0.19634000  0.41426000  1
  C  C688  1  0.57576000  0.08173000  0.91295000  1
  C  C689  1  0.89710000  0.68130000  0.58730000  1
  C  C690  1  0.94662000  0.90792000  0.53744000  1
  C  C691  1  0.28840000  0.80737000  0.19503000  1
  C  C692  1  0.06925000  0.27727000  0.41183000  1
  C  C693  1  0.88506000  0.76862000  0.58606000  1
  C  C694  1  0.36373000  0.47958000  0.09916000  1
  C  C695  1  0.63022000  0.18078000  0.82878000  1
  C  C696  1  0.55430000  0.84487000  0.90373000  1
  C  C697  1  0.31448000  0.27351000  0.14033000  1
  C  C698  1  0.29892000  0.18278000  0.15058000  1
  C  C699  1  0.69856000  0.44749000  0.75039000  1
  C  C700  1  0.56194000  0.12605000  0.88447000  1
  C  C701  1  0.10083000  0.09627000  0.34487000  1
  C  C702  1  0.27384000  0.44938000  0.17034000  1
  C  C703  1  0.41496000  0.33670000  0.02678000  1
  C  C704  1  0.73552000  0.44592000  0.70364000  1
  C  C705  1  0.39207000  0.91328000  0.04698000  1
  C  C706  1  0.81201000  0.11553000  0.62605000  1
  C  C707  1  0.01578000  0.46838000  0.41746000  1
  C  C708  1  0.18840000  0.41710000  0.24230000  1
  C  C709  1  0.51129000  0.41295000  0.91827000  1
  C  C710  1  0.55359000  0.38447000  0.87395000  1
  C  C711  1  0.18578000  0.99938000  0.23966000  1
  C  C712  1  0.42544000  0.26034000  0.99938000  1
  C  C713  1  0.28457000  0.49054000  0.14012000  1
  C  C714  1  0.84251000  0.08705000  0.58173000  1
  C  C715  1  0.35728000  0.44807000  0.06517000  1
  C  C716  1  0.25166000  0.02678000  0.16330000  1
  C  C717  1  0.24161000  0.26442000  0.16816000  1
  C  C718  1  0.91243000  0.92629000  0.49705000  1
  C  C719  1  0.19692000  0.45882000  0.21194000  1
  C  C720  1  0.23436000  0.22043000  0.17285000  1
  C  C721  1  0.13752000  0.97479000  0.26917000  1
  C  C722  1  0.81210000  0.69020000  0.59280000  1
  C  C723  1  0.94891000  0.47014000  0.45564000  1
  C  C724  1  0.70920000  0.30737000  0.69503000  1
  C  C725  1  0.02217000  0.44283000  0.37943000  1
  C  C726  1  0.99024000  0.28479000  0.40833000  1
  C  C727  1  0.80535000  0.04698000  0.58672000  1
  C  C728  1  0.48406000  0.96256000  0.90792000  1
  C  C729  1  0.76116000  0.62111000  0.63017000  1
  C  C730  1  0.19960000  0.99844000  0.19156000  1
  C  C731  1  0.39116000  0.30844000  0.99844000  1
  C  C732  1  0.61852000  0.47479000  0.76917000  1
  C  C733  1  0.63251000  0.90948000  0.75210000  1
  C  C734  1  0.79056000  0.64515000  0.59153000  1
  C  C735  1  0.40669000  0.23083000  0.97479000  1
  C  C736  1  0.11486000  0.11801000  0.26287000  1
  C  C737  1  0.06467000  0.12227000  0.30819000  1
  C  C738  1  0.59279000  0.67285000  0.77957000  1
  C  C739  1  0.68900000  0.17122000  0.68078000  1
  C  C740  1  0.55050000  0.65058000  0.81722000  1
  C  C741  1  0.74131000  0.58121000  0.62637000  1
  C  C742  1  0.95801000  0.24790000  0.40948000  1
  C  C743  1  0.69247000  0.47173000  0.67293000  1
  C  C744  1  0.34331000  0.09916000  0.02042000  1
  C  C745  1  0.54100000  0.32878000  0.81922000  1
  C  C746  1  0.88012000  0.88827000  0.47969000  1
  C  C747  1  0.49783000  0.35979000  0.86135000  1
  C  C748  1  0.71897000  0.14021000  0.63865000  1
  C  C749  1  0.30535000  0.06517000  0.05193000  1
  C  C750  1  0.39198000  0.59208000  0.96256000  1
  C  C751  1  0.10356000  0.94749000  0.25039000  1
  C  C752  1  0.80308000  0.62539000  0.54925000  1
  C  C753  1  0.43905000  0.45302000  0.91328000  1
  C  C754  1  0.89096000  0.44563000  0.45845000  1
  C  C755  1  0.96669000  0.41822000  0.38040000  1
  C  C756  1  0.94247000  0.02042000  0.40084000  1
  C  C757  1  0.33577000  0.57371000  0.00295000  1
  C  C758  1  0.16287000  0.97173000  0.17293000  1
  C  C759  1  0.40948000  0.00295000  0.92629000  1
  C  C760  1  0.78395000  0.58393000  0.54817000  1
  C  C761  1  0.59023000  0.66816000  0.73558000  1
  C  C762  1  0.90068000  0.41807000  0.41997000  1
  C  C763  1  0.81938000  0.45198000  0.49946000  1
  C  C764  1  0.11492000  0.94592000  0.20364000  1
  C  C765  1  0.60143000  0.90833000  0.71521000  1
  C  C766  1  0.57518000  0.49938000  0.73966000  1
  C  C767  1  0.08799000  0.14033000  0.22649000  1
  C  C768  1  0.50487000  0.62227000  0.80819000  1
  C  C769  1  0.63978000  0.31922000  0.67122000  1
  C  C770  1  0.50544000  0.91426000  0.80366000  1
  C  C771  1  0.33580000  0.32707000  0.97173000  1
  C  C772  1  0.87052000  0.05193000  0.43483000  1
  C  C773  1  0.45803000  0.59627000  0.84487000  1
  C  C774  1  0.61040000  0.49844000  0.69156000  1
  C  C775  1  0.35395000  0.24961000  0.94749000  1
  C  C776  1  0.98170000  0.15058000  0.31722000  1
  C  C777  1  0.38461000  0.74790000  0.90948000  1
  C  C778  1  0.48343000  0.30497000  0.80737000  1
  C  C779  1  0.85400000  0.90580000  0.43620000  1
  C  C780  1  0.59577000  0.19503000  0.69263000  1
  C  C781  1  0.27511000  0.14012000  0.00946000  1
  C  C782  1  0.64082000  0.36135000  0.64021000  1
  C  C783  1  0.91523000  0.00946000  0.35988000  1
  C  C784  1  0.22322000  0.17034000  0.05062000  1
  C  C785  1  0.54519000  0.64033000  0.72649000  1
  C  C786  1  0.24808000  0.61173000  0.02031000  1
  C  C787  1  0.50426000  0.61801000  0.76287000  1
  C  C788  1  0.31856000  0.29636000  0.94592000  1
  C  C789  1  0.67935000  0.91997000  0.58193000  1
  C  C790  1  0.19600000  0.59420000  0.06380000  1
  C  C791  1  0.17748000  0.37363000  0.08121000  1
  C  C792  1  0.77844000  0.16330000  0.47322000  1
  C  C793  1  0.35981000  0.02031000  0.88827000  1
  C  C794  1  0.51892000  0.91183000  0.72273000  1
  C  C795  1  0.00603000  0.16816000  0.23558000  1
  C  C796  1  0.47112000  0.91394000  0.76862000  1
  C  C797  1  0.11773000  0.36983000  0.12111000  1
  C  C798  1  0.65291000  0.88040000  0.58178000  1
  C  C799  1  0.95479000  0.17285000  0.27957000  1
  C  C800  1  0.80050000  0.89080000  0.42940000  1
  C  C801  1  0.68116000  0.99946000  0.54802000  1
  C  C802  1  0.81660000  0.61770000  0.41210000  1
  C  C803  1  0.22918000  0.95198000  0.99946000  1
  C  C804  1  0.31664000  0.78479000  0.90833000  1
  C  C805  1  0.30910000  0.69634000  0.91426000  1
  C  C806  1  0.89356000  0.05062000  0.32966000  1
  C  C807  1  0.55826000  0.52678000  0.66330000  1
  C  C808  1  0.13212000  0.45183000  0.08393000  1
  C  C809  1  0.06429000  0.40847000  0.14515000  1
  C  C810  1  0.65059000  0.95845000  0.55437000  1
  C  C811  1  0.69804000  0.19156000  0.50156000  1
  C  C812  1  0.80870000  0.57060000  0.39080000  1
  C  C813  1  0.07153000  0.45075000  0.12539000  1
  C  C814  1  0.15574000  0.21194000  0.04118000  1
  C  C815  1  0.29020000  0.06380000  0.90580000  1
  C  C816  1  0.64767000  0.41328000  0.54698000  1
  C  C817  1  0.12070000  0.60920000  0.07060000  1
  C  C818  1  0.10550000  0.24230000  0.08290000  1
  C  C819  1  0.57246000  0.37395000  0.61553000  1
  C  C820  1  0.99770000  0.40720000  0.19020000  1
  C  C821  1  0.68516000  0.23966000  0.50062000  1
  C  C822  1  0.06570000  0.58790000  0.11770000  1
  C  C823  1  0.26128000  0.91807000  0.91997000  1
  C  C824  1  0.22864000  0.50054000  0.95198000  1
  C  C825  1  0.05111000  0.08121000  0.12637000  1
  C  C826  1  0.48440000  0.91270000  0.68130000  1
  C  C827  1  0.20496000  0.94563000  0.95845000  1
  C  C828  1  0.63460000  0.17293000  0.52827000  1
  C  C829  1  0.57044000  0.41827000  0.58705000  1
  C  C830  1  0.86768000  0.04118000  0.28806000  1
  C  C831  1  0.59840000  0.87943000  0.55717000  1
  C  C832  1  0.23974000  0.73138000  0.91394000  1
  C  C833  1  0.77130000  0.91210000  0.38230000  1
  C  C834  1  0.24165000  0.77727000  0.91183000  1
  C  C835  1  0.56930000  0.74230000  0.58290000  1
  C  C836  1  0.74020000  0.56380000  0.40580000  1
  C  C837  1  0.61231000  0.26917000  0.52521000  1
  C  C838  1  0.59114000  0.71194000  0.54118000  1
  C  C839  1  0.08395000  0.08393000  0.04817000  1
  C  C840  1  0.57755000  0.56517000  0.55193000  1
  C  C841  1  0.59545000  0.95564000  0.52986000  1
  C  C842  1  0.22990000  0.07060000  0.89080000  1
  C  C843  1  0.73161000  0.52031000  0.38827000  1
  C  C844  1  0.98756000  0.12111000  0.13017000  1
  C  C845  1  0.23469000  0.91822000  0.88040000  1
  C  C846  1  0.84632000  0.41394000  0.26862000  1
  C  C847  1  0.56084000  0.20364000  0.55408000  1
  C  C848  1  0.73287000  0.26287000  0.38199000  1
  C  C849  1  0.16341000  0.54155000  0.94563000  1
  C  C850  1  0.55582000  0.67034000  0.55062000  1
  C  C851  1  0.84780000  0.08290000  0.25770000  1
  C  C852  1  0.55105000  0.25039000  0.55251000  1
  C  C853  1  0.92160000  0.41270000  0.18130000  1
  C  C854  1  0.69710000  0.34487000  0.40373000  1
  C  C855  1  0.18125000  0.58003000  0.91807000  1
  C  C856  1  0.56676000  0.91746000  0.53162000  1
  C  C857  1  0.40490000  0.90720000  0.69020000  1
  C  C858  1  0.72832000  0.22649000  0.35967000  1
  C  C859  1  0.66128000  0.50295000  0.42629000  1
  C  C860  1  0.57531000  0.64012000  0.50946000  1
  C  C861  1  0.66788000  0.04817000  0.41607000  1
  C  C862  1  0.12531000  0.97014000  0.95564000  1
  C  C863  1  0.77664000  0.41426000  0.30366000  1
  C  C864  1  0.16570000  0.81870000  0.91270000  1
  C  C865  1  0.02228000  0.12539000  0.04925000  1
  C  C866  1  0.84652000  0.41183000  0.22273000  1
  C  C867  1  0.15360000  0.11770000  0.91210000  1
  C  C868  1  0.68694000  0.30819000  0.37773000  1
  C  C869  1  0.97276000  0.14515000  0.09153000  1
  C  C870  1  0.53711000  0.59916000  0.52042000  1
  C  C871  1  0.64546000  0.46256000  0.40792000  1
  C  C872  1  0.63232000  0.12637000  0.41879000  1
  C  C873  1  0.08095000  0.54436000  0.97014000  1
  C  C874  1  0.37236000  0.72043000  0.67285000  1
  C  C875  1  0.29409000  0.59052000  0.74790000  1
  C  C876  1  0.15557000  0.94283000  0.87943000  1
  C  C877  1  0.11509000  0.61960000  0.91822000  1
  C  C878  1  0.38209000  0.90847000  0.64515000  1
  C  C879  1  0.64767000  0.04925000  0.37461000  1
  C  C880  1  0.96500000  0.37943000  0.05717000  1
  C  C881  1  0.36772000  0.68278000  0.65058000  1
  C  C882  1  0.09838000  0.96838000  0.91746000  1
  C  C883  1  0.98416000  0.41746000  0.03162000  1
  C  C884  1  0.39133000  0.86983000  0.62111000  1
  C  C885  1  0.22497000  0.59167000  0.78479000  1
  C  C886  1  0.67419000  0.23558000  0.33184000  1
  C  C887  1  0.09510000  0.80980000  0.90720000  1
  N  N888  1  0.29406000  0.58773000  0.70415000  1
  N  N889  1  0.34295000  0.61162000  0.60202000  1
  N  N890  1  0.32506000  0.57927000  0.57801000  1
  N  N891  1  0.33932000  0.91349000  0.56207000  1
  N  N892  1  0.46005000  0.43820000  0.40514000  1
  N  N893  1  0.90139000  0.93793000  0.91349000  1
  N  N894  1  0.40784000  0.46944000  0.38144000  1
  N  N895  1  0.69230000  0.50314000  0.07066000  1
  N  N896  1  0.30442000  0.56027000  0.45589000  1
  N  N897  1  0.81488000  0.58651000  0.93793000  1
  N  N898  1  0.21072000  0.88144000  0.53056000  1
  N  N899  1  0.23704000  0.57066000  0.49686000  1
  N  N900  1  0.61821000  0.29585000  0.08773000  1
  N  N901  1  0.13481000  0.90514000  0.56180000  1
  N  N902  1  0.63531000  0.54411000  0.06027000  1
  N  N903  1  0.26610000  0.99686000  0.42934000  1
  N  N904  1  0.69544000  0.07066000  0.99686000  1
  N  N905  1  0.23969000  0.95589000  0.43973000  1
  N  N906  1  0.59567000  0.42199000  0.07927000  1
  N  N907  1  0.24719000  0.43793000  0.41349000  1
  N  N908  1  0.54543000  0.39798000  0.11162000  1
  N  N909  1  0.67942000  0.06027000  0.95589000  1
  N  N910  1  0.74128000  0.96944000  0.88144000  1
  N  N911  1  0.41406000  0.08773000  0.20415000  1
  N  N912  1  0.69661000  0.93820000  0.90514000  1
  N  N913  1  0.51766000  0.07927000  0.07801000  1
  N  N914  1  0.62272000  0.61856000  0.96944000  1
  N  N915  1  0.99821000  0.79585000  0.58773000  1
  N  N916  1  0.94497000  0.89798000  0.61162000  1
  N  N917  1  0.44341000  0.11162000  0.10202000  1
  N  N918  1  0.60175000  0.59486000  0.93820000  1
  N  N919  1  0.09693000  0.07801000  0.42073000  1
  N  N920  1  0.90307000  0.92199000  0.57927000  1
  N  N921  1  0.39825000  0.40514000  0.06180000  1
  N  N922  1  0.55659000  0.88838000  0.89798000  1
  N  N923  1  0.05503000  0.10202000  0.38838000  1
  N  N924  1  0.00179000  0.20415000  0.41227000  1
  N  N925  1  0.37728000  0.38144000  0.03056000  1
  N  N926  1  0.48234000  0.92073000  0.92199000  1
  N  N927  1  0.30339000  0.06180000  0.09486000  1
  N  N928  1  0.58594000  0.91227000  0.79585000  1
  N  N929  1  0.25872000  0.03056000  0.11856000  1
  N  N930  1  0.32058000  0.93973000  0.04411000  1
  N  N931  1  0.45457000  0.60202000  0.88838000  1
  N  N932  1  0.75281000  0.56207000  0.58651000  1
  N  N933  1  0.40433000  0.57801000  0.92073000  1
  N  N934  1  0.76031000  0.04411000  0.56027000  1
  N  N935  1  0.30456000  0.92934000  0.00314000  1
  N  N936  1  0.73390000  0.00314000  0.57066000  1
  N  N937  1  0.36469000  0.45589000  0.93973000  1
  N  N938  1  0.86519000  0.09486000  0.43820000  1
  N  N939  1  0.38179000  0.70415000  0.91227000  1
  N  N940  1  0.76296000  0.42934000  0.50314000  1
  N  N941  1  0.78928000  0.11856000  0.46944000  1
  N  N942  1  0.18512000  0.41349000  0.06207000  1
  N  N943  1  0.69558000  0.43973000  0.54411000  1
  N  N944  1  0.30770000  0.49686000  0.92934000  1
  N  N945  1  0.59216000  0.53056000  0.61856000  1
  N  N946  1  0.09861000  0.06207000  0.08651000  1
  N  N947  1  0.53995000  0.56180000  0.59486000  1
  N  N948  1  0.66068000  0.08651000  0.43793000  1
  N  N949  1  0.67494000  0.42073000  0.42199000  1
  N  N950  1  0.65705000  0.38838000  0.39798000  1
  N  N951  1  0.70594000  0.41227000  0.29585000  1
  O  O952  1  0.60488000  0.47136000  0.37658000  1
  O  O953  1  0.58446000  0.35895000  0.34237000  1
  O  O954  1  0.74368000  0.41909000  0.10827000  1
  O  O955  1  0.51779000  0.45167000  0.31749000  1
  O  O956  1  0.36169000  0.87176000  0.46876000  1
  O  O957  1  0.25447000  0.66641000  0.56993000  1
  O  O958  1  0.34349000  0.96855000  0.47981000  1
  O  O959  1  0.33607000  0.61893000  0.48411000  1
  O  O960  1  0.34571000  0.45946000  0.46644000  1
  O  O961  1  0.79185000  0.53145000  0.02019000  1
  O  O962  1  0.82330000  0.02019000  0.96855000  1
  O  O963  1  0.57912000  0.43007000  0.16641000  1
  O  O964  1  0.66277000  0.10827000  0.08091000  1
  O  O965  1  0.70221000  0.62824000  0.03124000  1
  O  O966  1  0.14805000  0.60827000  0.58091000  1
  O  O967  1  0.18785000  0.96644000  0.54054000  1
  O  O968  1  0.07317000  0.84237000  0.64105000  1
  O  O969  1  0.16472000  0.81749000  0.54833000  1
  O  O970  1  0.83045000  0.03124000  0.87176000  1
  O  O971  1  0.72839000  0.95946000  0.96644000  1
  O  O972  1  0.54500000  0.51589000  0.11893000  1
  O  O973  1  0.27104000  0.08091000  0.39173000  1
  O  O974  1  0.18796000  0.52019000  0.46855000  1
  O  O975  1  0.69483000  0.53356000  0.95946000  1
  O  O976  1  0.26655000  0.53124000  0.37176000  1
  O  O977  1  0.57624000  0.37658000  0.02864000  1
  O  O978  1  0.44341000  0.34237000  0.14105000  1
  O  O979  1  0.50919000  0.16641000  0.06993000  1
  O  O980  1  0.45282000  0.02864000  0.12342000  1
  O  O981  1  0.17982000  0.98411000  0.38107000  1
  O  O982  1  0.71422000  0.85895000  0.84237000  1
  O  O983  1  0.01854000  0.87658000  0.52864000  1
  O  O984  1  0.56089000  0.11893000  0.98411000  1
  O  O985  1  0.71305000  0.95167000  0.81749000  1
  O  O986  1  0.46946000  0.31749000  0.04833000  1
  O  O987  1  0.17560000  0.06993000  0.33359000  1
  O  O988  1  0.82440000  0.93007000  0.66641000  1
  O  O989  1  0.53054000  0.68251000  0.95167000  1
  O  O990  1  0.28695000  0.04833000  0.18251000  1
  O  O991  1  0.43911000  0.88107000  0.01589000  1
  O  O992  1  0.98146000  0.12342000  0.47136000  1
  O  O993  1  0.28578000  0.14105000  0.15763000  1
  O  O994  1  0.82018000  0.01589000  0.61893000  1
  O  O995  1  0.54718000  0.97136000  0.87658000  1
  O  O996  1  0.49081000  0.83359000  0.93007000  1
  O  O997  1  0.55659000  0.65763000  0.85895000  1
  O  O998  1  0.42376000  0.62342000  0.97136000  1
  O  O999  1  0.73345000  0.46876000  0.62824000  1
  O  O1000  1  0.30517000  0.46644000  0.04054000  1
  O  O1001  1  0.81204000  0.47981000  0.53145000  1
  O  O1002  1  0.72896000  0.91909000  0.60827000  1
  O  O1003  1  0.45500000  0.48411000  0.88107000  1
  O  O1004  1  0.27161000  0.04054000  0.03356000  1
  O  O1005  1  0.16955000  0.96876000  0.12824000  1
  O  O1006  1  0.83528000  0.18251000  0.45167000  1
  O  O1007  1  0.92683000  0.15763000  0.35895000  1
  O  O1008  1  0.81215000  0.03356000  0.45946000  1
  O  O1009  1  0.85195000  0.39173000  0.41909000  1
  O  O1010  1  0.29779000  0.37176000  0.96876000  1
  O  O1011  1  0.33723000  0.89173000  0.91909000  1
  O  O1012  1  0.42088000  0.56993000  0.83359000  1
  O  O1013  1  0.17670000  0.97981000  0.03145000  1
  O  O1014  1  0.20815000  0.46855000  0.97981000  1
  O  O1015  1  0.65429000  0.54054000  0.53356000  1
  O  O1016  1  0.66393000  0.38107000  0.51589000  1
  O  O1017  1  0.65651000  0.03145000  0.52019000  1
  O  O1018  1  0.74553000  0.33359000  0.43007000  1
  O  O1019  1  0.63831000  0.12824000  0.53124000  1
  O  O1020  1  0.48221000  0.54833000  0.68251000  1
  O  O1021  1  0.25632000  0.58091000  0.89173000  1
  O  O1022  1  0.41554000  0.64105000  0.65763000  1
  O  O1023  1  0.39512000  0.52864000  0.62342000  1
