# generated using pymatgen
data_Zn5Si2H34(C28O9)2
_symmetry_space_group_name_H-M   'P 1'
_cell_length_a   13.93500000
_cell_length_b   14.19600000
_cell_length_c   14.67080000
_cell_angle_alpha   107.98800000
_cell_angle_beta   113.73500000
_cell_angle_gamma   100.29800000
_symmetry_Int_Tables_number   1
_chemical_formula_structural   Zn5Si2H34(C28O9)2
_chemical_formula_sum   'Zn5 Si2 H34 C56 O18'
_cell_volume   2368.83841245
_cell_formula_units_Z   1
loop_
 _symmetry_equiv_pos_site_id
 _symmetry_equiv_pos_as_xyz
  1  'x, y, z'
loop_
 _atom_site_type_symbol
 _atom_site_label
 _atom_site_symmetry_multiplicity
 _atom_site_fract_x
 _atom_site_fract_y
 _atom_site_fract_z
 _atom_site_occupancy
  Zn  Zn0  1  0.30330000  0.99584000  0.26420000  1
  Zn  Zn1  1  0.47125000  0.79671000  0.55655000  1
  Zn  Zn2  1  0.50000000  0.00000000  0.50000000  1
  Zn  Zn3  1  0.52875000  0.20329000  0.44345000  1
  Zn  Zn4  1  0.69670000  0.00416000  0.73580000  1
  Si  Si5  1  0.23617000  0.36569000  0.88000000  1
  Si  Si6  1  0.76383000  0.63431000  0.12000000  1
  H  H7  1  0.03980000  0.29230000  0.90890000  1
  H  H8  1  0.07920000  0.30850000  0.65400000  1
  H  H9  1  0.11430000  0.75880000  0.45850000  1
  H  H10  1  0.11640000  0.50300000  0.92070000  1
  H  H11  1  0.15170000  0.78140000  0.20460000  1
  H  H12  1  0.15910000  0.68220000  0.02190000  1
  H  H13  1  0.16620000  0.16720000  0.89620000  1
  H  H14  1  0.21780000  0.10480000  0.03100000  1
  H  H15  1  0.25460000  0.16890000  0.77610000  1
  H  H16  1  0.32260000  0.09980000  0.66120000  1
  H  H17  1  0.35790000  0.45550000  0.77790000  1
  H  H18  1  0.41090000  0.44930000  0.11270000  1
  H  H19  1  0.42910000  0.38530000  0.66310000  1
  H  H20  1  0.43830000  0.56070000  0.98880000  1
  H  H21  1  0.47330000  0.38360000  0.24430000  1
  H  H22  1  0.47850000  0.74190000  0.08220000  1
  H  H23  1  0.48100000  0.01300000  0.31700000  1
  H  H24  1  0.51900000  0.98700000  0.68300000  1
  H  H25  1  0.52150000  0.25810000  0.91780000  1
  H  H26  1  0.52670000  0.61640000  0.75570000  1
  H  H27  1  0.56170000  0.43930000  0.01120000  1
  H  H28  1  0.57090000  0.61470000  0.33690000  1
  H  H29  1  0.58910000  0.55070000  0.88730000  1
  H  H30  1  0.64210000  0.54450000  0.22210000  1
  H  H31  1  0.67740000  0.90020000  0.33880000  1
  H  H32  1  0.74540000  0.83110000  0.22390000  1
  H  H33  1  0.78220000  0.89520000  0.96900000  1
  H  H34  1  0.83380000  0.83280000  0.10380000  1
  H  H35  1  0.84090000  0.31780000  0.97810000  1
  H  H36  1  0.84830000  0.21860000  0.79540000  1
  H  H37  1  0.88360000  0.49700000  0.07930000  1
  H  H38  1  0.88570000  0.24120000  0.54150000  1
  H  H39  1  0.92080000  0.69150000  0.34600000  1
  H  H40  1  0.96020000  0.70770000  0.09110000  1
  C  C41  1  0.00880000  0.27960000  0.83370000  1
  C  C42  1  0.03250000  0.29020000  0.68300000  1
  C  C43  1  0.08060000  0.30360000  0.79120000  1
  C  C44  1  0.08320000  0.74950000  0.38420000  1
  C  C45  1  0.10510000  0.76180000  0.23320000  1
  C  C46  1  0.15400000  0.77580000  0.34280000  1
  C  C47  1  0.19090000  0.55040000  0.95540000  1
  C  C48  1  0.21630000  0.65790000  0.01540000  1
  C  C49  1  0.22720000  0.21230000  0.96750000  1
  C  C50  1  0.25900000  0.17420000  0.04690000  1
  C  C51  1  0.27250000  0.51170000  0.94550000  1
  C  C52  1  0.27750000  0.81570000  0.41280000  1
  C  C53  1  0.28210000  0.31500000  0.98930000  1
  C  C54  1  0.28990000  0.21350000  0.75350000  1
  C  C55  1  0.29950000  0.32070000  0.79090000  1
  C  C56  1  0.32350000  0.72950000  0.06560000  1
  C  C57  1  0.33050000  0.17240000  0.68530000  1
  C  C58  1  0.35110000  0.23700000  0.14970000  1
  C  C59  1  0.35120000  0.38320000  0.75500000  1
  C  C60  1  0.35180000  0.84240000  0.13530000  1
  C  C61  1  0.37310000  0.37820000  0.09500000  1
  C  C62  1  0.38090000  0.58500000  0.99470000  1
  C  C63  1  0.38280000  0.23500000  0.65100000  1
  C  C64  1  0.38390000  0.19380000  0.23550000  1
  C  C65  1  0.39340000  0.34140000  0.68600000  1
  C  C66  1  0.40570000  0.69330000  0.05230000  1
  C  C67  1  0.40950000  0.34020000  0.17430000  1
  C  C68  1  0.42930000  0.18800000  0.57880000  1
  C  C69  1  0.57070000  0.81200000  0.42120000  1
  C  C70  1  0.59050000  0.65980000  0.82570000  1
  C  C71  1  0.59430000  0.30670000  0.94770000  1
  C  C72  1  0.60660000  0.65860000  0.31400000  1
  C  C73  1  0.61610000  0.80620000  0.76450000  1
  C  C74  1  0.61720000  0.76500000  0.34900000  1
  C  C75  1  0.61910000  0.41500000  0.00530000  1
  C  C76  1  0.62690000  0.62180000  0.90500000  1
  C  C77  1  0.64820000  0.15760000  0.86470000  1
  C  C78  1  0.64880000  0.61680000  0.24500000  1
  C  C79  1  0.64890000  0.76300000  0.85030000  1
  C  C80  1  0.66950000  0.82760000  0.31470000  1
  C  C81  1  0.67650000  0.27050000  0.93440000  1
  C  C82  1  0.70050000  0.67930000  0.20910000  1
  C  C83  1  0.71010000  0.78650000  0.24650000  1
  C  C84  1  0.71790000  0.68500000  0.01070000  1
  C  C85  1  0.72250000  0.18430000  0.58720000  1
  C  C86  1  0.72750000  0.48830000  0.05450000  1
  C  C87  1  0.74100000  0.82580000  0.95310000  1
  C  C88  1  0.77280000  0.78770000  0.03250000  1
  C  C89  1  0.78370000  0.34210000  0.98460000  1
  C  C90  1  0.80910000  0.44960000  0.04460000  1
  C  C91  1  0.84600000  0.22420000  0.65720000  1
  C  C92  1  0.89490000  0.23820000  0.76680000  1
  C  C93  1  0.91680000  0.25050000  0.61580000  1
  C  C94  1  0.91940000  0.69640000  0.20880000  1
  C  C95  1  0.96750000  0.70980000  0.31700000  1
  C  C96  1  0.99120000  0.72040000  0.16630000  1
  O  O97  1  0.27040000  0.86420000  0.14880000  1
  O  O98  1  0.31230000  0.11050000  0.21390000  1
  O  O99  1  0.31430000  0.78050000  0.48660000  1
  O  O100  1  0.33620000  0.87730000  0.39500000  1
  O  O101  1  0.42700000  0.09510000  0.56260000  1
  O  O102  1  0.44770000  0.90720000  0.17780000  1
  O  O103  1  0.46420000  0.04490000  0.37440000  1
  O  O104  1  0.46510000  0.24340000  0.53950000  1
  O  O105  1  0.47510000  0.24430000  0.32110000  1
  O  O106  1  0.52490000  0.75570000  0.67890000  1
  O  O107  1  0.53490000  0.75660000  0.46050000  1
  O  O108  1  0.53580000  0.95510000  0.62560000  1
  O  O109  1  0.55230000  0.09280000  0.82220000  1
  O  O110  1  0.57300000  0.90490000  0.43740000  1
  O  O111  1  0.66380000  0.12270000  0.60500000  1
  O  O112  1  0.68570000  0.21950000  0.51340000  1
  O  O113  1  0.68770000  0.88950000  0.78610000  1
  O  O114  1  0.72960000  0.13580000  0.85120000  1
