# generated using pymatgen
data_MnH8C14SO6
_symmetry_space_group_name_H-M   'P 1'
_cell_length_a   11.63840000
_cell_length_b   21.05200000
_cell_length_c   24.24700000
_cell_angle_alpha   114.95900000
_cell_angle_beta   102.95000000
_cell_angle_gamma   92.40600000
_symmetry_Int_Tables_number   1
_chemical_formula_structural   MnH8C14SO6
_chemical_formula_sum   'Mn8 H64 C112 S8 O48'
_cell_volume   5185.93932370
_cell_formula_units_Z   8
loop_
 _symmetry_equiv_pos_site_id
 _symmetry_equiv_pos_as_xyz
  1  'x, y, z'
loop_
 _atom_site_type_symbol
 _atom_site_label
 _atom_site_symmetry_multiplicity
 _atom_site_fract_x
 _atom_site_fract_y
 _atom_site_fract_z
 _atom_site_occupancy
  Mn  Mn0  1  0.12736000  0.87730000  0.75459000  1
  Mn  Mn1  1  0.12852000  0.05723000  0.29299000  1
  Mn  Mn2  1  0.33556000  0.76431000  0.70703000  1
  Mn  Mn3  1  0.42036000  0.17038000  0.34079000  1
  Mn  Mn4  1  0.57964000  0.82962000  0.65921000  1
  Mn  Mn5  1  0.66444000  0.23569000  0.29297000  1
  Mn  Mn6  1  0.87148000  0.94277000  0.70701000  1
  Mn  Mn7  1  0.87264000  0.12270000  0.24541000  1
  H  H8  1  0.02070000  0.22070000  0.19490000  1
  H  H9  1  0.02080000  0.24010000  0.98090000  1
  H  H10  1  0.04490000  0.86170000  0.11360000  1
  H  H11  1  0.05200000  0.27870000  0.13690000  1
  H  H12  1  0.08790000  0.55370000  0.40630000  1
  H  H13  1  0.11950000  0.41370000  0.32240000  1
  H  H14  1  0.14280000  0.11950000  0.48830000  1
  H  H15  1  0.14970000  0.84610000  0.91960000  1
  H  H16  1  0.15440000  0.63190000  0.51200000  1
  H  H17  1  0.17560000  0.83930000  0.01280000  1
  H  H18  1  0.17970000  0.14810000  0.59320000  1
  H  H19  1  0.23670000  0.33370000  0.33360000  1
  H  H20  1  0.26450000  0.91940000  0.14140000  1
  H  H21  1  0.27010000  0.07320000  0.91920000  1
  H  H22  1  0.29620000  0.87540000  0.28820000  1
  H  H23  1  0.29770000  0.09210000  0.67860000  1
  H  H24  1  0.32320000  0.65870000  0.36670000  1
  H  H25  1  0.32540000  0.02580000  0.80460000  1
  H  H26  1  0.33790000  0.17330000  0.01120000  1
  H  H27  1  0.34440000  0.16370000  0.19950000  1
  H  H28  1  0.35540000  0.03640000  0.19920000  1
  H  H29  1  0.37540000  0.22160000  0.14140000  1
  H  H30  1  0.37950000  0.49900000  0.27910000  1
  H  H31  1  0.39150000  0.73760000  0.47210000  1
  H  H32  1  0.39890000  0.78030000  0.27760000  1
  H  H33  1  0.40260000  0.00120000  0.66710000  1
  H  H34  1  0.41350000  0.14120000  0.86330000  1
  H  H35  1  0.42060000  0.26650000  0.52920000  1
  H  H36  1  0.43100000  0.74730000  0.88650000  1
  H  H37  1  0.45540000  0.29270000  0.63320000  1
  H  H38  1  0.45840000  0.74020000  0.98090000  1
  H  H39  1  0.48880000  0.41050000  0.28450000  1
  H  H40  1  0.51120000  0.58950000  0.71550000  1
  H  H41  1  0.54160000  0.25980000  0.01910000  1
  H  H42  1  0.54460000  0.70730000  0.36680000  1
  H  H43  1  0.56900000  0.25270000  0.11350000  1
  H  H44  1  0.57940000  0.73350000  0.47080000  1
  H  H45  1  0.58650000  0.85880000  0.13670000  1
  H  H46  1  0.59740000  0.99880000  0.33290000  1
  H  H47  1  0.60110000  0.21970000  0.72240000  1
  H  H48  1  0.60850000  0.26240000  0.52790000  1
  H  H49  1  0.62050000  0.50100000  0.72090000  1
  H  H50  1  0.62460000  0.77840000  0.85860000  1
  H  H51  1  0.64460000  0.96360000  0.80080000  1
  H  H52  1  0.65560000  0.83630000  0.80050000  1
  H  H53  1  0.66210000  0.82670000  0.98880000  1
  H  H54  1  0.67460000  0.97420000  0.19540000  1
  H  H55  1  0.67680000  0.34130000  0.63330000  1
  H  H56  1  0.70230000  0.90790000  0.32140000  1
  H  H57  1  0.70380000  0.12460000  0.71180000  1
  H  H58  1  0.72990000  0.92680000  0.08080000  1
  H  H59  1  0.73550000  0.08060000  0.85860000  1
  H  H60  1  0.76330000  0.66630000  0.66640000  1
  H  H61  1  0.82030000  0.85190000  0.40680000  1
  H  H62  1  0.82440000  0.16070000  0.98720000  1
  H  H63  1  0.84560000  0.36810000  0.48800000  1
  H  H64  1  0.85030000  0.15390000  0.08040000  1
  H  H65  1  0.85720000  0.88050000  0.51170000  1
  H  H66  1  0.88050000  0.58630000  0.67760000  1
  H  H67  1  0.91210000  0.44630000  0.59370000  1
  H  H68  1  0.94800000  0.72130000  0.86310000  1
  H  H69  1  0.95510000  0.13830000  0.88640000  1
  H  H70  1  0.97920000  0.75990000  0.01910000  1
  H  H71  1  0.97930000  0.77930000  0.80510000  1
  C  C72  1  0.03130000  0.14530000  0.91230000  1
  C  C73  1  0.06140000  0.02560000  0.83380000  1
  C  C74  1  0.07090000  0.20650000  0.96850000  1
  C  C75  1  0.09270000  0.22170000  0.18440000  1
  C  C76  1  0.10500000  0.09440000  0.89470000  1
  C  C77  1  0.11070000  0.25530000  0.14950000  1
  C  C78  1  0.14980000  0.59060000  0.41950000  1
  C  C79  1  0.16140000  0.15150000  0.24370000  1
  C  C80  1  0.18360000  0.18830000  0.20470000  1
  C  C81  1  0.18430000  0.21740000  0.00560000  1
  C  C82  1  0.18940000  0.63750000  0.48310000  1
  C  C83  1  0.19520000  0.41410000  0.31580000  1
  C  C84  1  0.19880000  0.59710000  0.37610000  1
  C  C85  1  0.20630000  0.15430000  0.51730000  1
  C  C86  1  0.21280000  0.82540000  0.93240000  1
  C  C87  1  0.21690000  0.25480000  0.13240000  1
  C  C88  1  0.21990000  0.10660000  0.93200000  1
  C  C89  1  0.22690000  0.82100000  0.98740000  1
  C  C90  1  0.22920000  0.17100000  0.57970000  1
  C  C91  1  0.24360000  0.46640000  0.29910000  1
  C  C92  1  0.25960000  0.16650000  0.42710000  1
  C  C93  1  0.26050000  0.16600000  0.98630000  1
  C  C94  1  0.26460000  0.36640000  0.32140000  1
  C  C95  1  0.27280000  0.80750000  0.83360000  1
  C  C96  1  0.27880000  0.18980000  0.49690000  1
  C  C97  1  0.28200000  0.69290000  0.50330000  1
  C  C98  1  0.28570000  0.18740000  0.18740000  1
  C  C99  1  0.28960000  0.65300000  0.39600000  1
  C  C100  1  0.28980000  0.80000000  0.89410000  1
  C  C101  1  0.30350000  0.22130000  0.15210000  1
  C  C102  1  0.32150000  0.78790000  0.00540000  1
  C  C103  1  0.32320000  0.22060000  0.62290000  1
  C  C104  1  0.33050000  0.70030000  0.45920000  1
  C  C105  1  0.33260000  0.73950000  0.57250000  1
  C  C106  1  0.34710000  0.93050000  0.15190000  1
  C  C107  1  0.34830000  0.46510000  0.28910000  1
  C  C108  1  0.36830000  0.00630000  0.31500000  1
  C  C109  1  0.37220000  0.24190000  0.54170000  1
  C  C110  1  0.37400000  0.36410000  0.30980000  1
  C  C111  1  0.37850000  0.88200000  0.29470000  1
  C  C112  1  0.38000000  0.09900000  0.68480000  1
  C  C113  1  0.38070000  0.76650000  0.91220000  1
  C  C114  1  0.39330000  0.25730000  0.60360000  1
  C  C115  1  0.39620000  0.76160000  0.96830000  1
  C  C116  1  0.40170000  0.00050000  0.18750000  1
  C  C117  1  0.40790000  0.03720000  0.81530000  1
  C  C118  1  0.41480000  0.87740000  0.13190000  1
  C  C119  1  0.41490000  0.41220000  0.29340000  1
  C  C120  1  0.41770000  0.90750000  0.75700000  1
  C  C121  1  0.43540000  0.94560000  0.30920000  1
  C  C122  1  0.44060000  0.82450000  0.28890000  1
  C  C123  1  0.44330000  0.04600000  0.67930000  1
  C  C124  1  0.44430000  0.16700000  0.70070000  1
  C  C125  1  0.44610000  0.30910000  0.31530000  1
  C  C126  1  0.46010000  0.10550000  0.85060000  1
  C  C127  1  0.47770000  0.98320000  0.79460000  1
  C  C128  1  0.52230000  0.01680000  0.20540000  1
  C  C129  1  0.53990000  0.89450000  0.14940000  1
  C  C130  1  0.55390000  0.69090000  0.68470000  1
  C  C131  1  0.55570000  0.83300000  0.29930000  1
  C  C132  1  0.55670000  0.95400000  0.32070000  1
  C  C133  1  0.55940000  0.17550000  0.71110000  1
  C  C134  1  0.56460000  0.05440000  0.69080000  1
  C  C135  1  0.58230000  0.09250000  0.24300000  1
  C  C136  1  0.58510000  0.58780000  0.70660000  1
  C  C137  1  0.58520000  0.12260000  0.86810000  1
  C  C138  1  0.59210000  0.96280000  0.18470000  1
  C  C139  1  0.59830000  0.99950000  0.81250000  1
  C  C140  1  0.60380000  0.23840000  0.03170000  1
  C  C141  1  0.60670000  0.74270000  0.39640000  1
  C  C142  1  0.61930000  0.23350000  0.08780000  1
  C  C143  1  0.62000000  0.90100000  0.31520000  1
  C  C144  1  0.62150000  0.11800000  0.70530000  1
  C  C145  1  0.62600000  0.63590000  0.69020000  1
  C  C146  1  0.62780000  0.75810000  0.45830000  1
  C  C147  1  0.63170000  0.99370000  0.68500000  1
  C  C148  1  0.65170000  0.53490000  0.71090000  1
  C  C149  1  0.65290000  0.06950000  0.84810000  1
  C  C150  1  0.66740000  0.26050000  0.42750000  1
  C  C151  1  0.66950000  0.29970000  0.54080000  1
  C  C152  1  0.67680000  0.77940000  0.37710000  1
  C  C153  1  0.67850000  0.21210000  0.99460000  1
  C  C154  1  0.69650000  0.77870000  0.84790000  1
  C  C155  1  0.71020000  0.20000000  0.10590000  1
  C  C156  1  0.71040000  0.34700000  0.60400000  1
  C  C157  1  0.71430000  0.81260000  0.81260000  1
  C  C158  1  0.71800000  0.30710000  0.49670000  1
  C  C159  1  0.72120000  0.81020000  0.50310000  1
  C  C160  1  0.72720000  0.19250000  0.16640000  1
  C  C161  1  0.73540000  0.63360000  0.67860000  1
  C  C162  1  0.73950000  0.83400000  0.01370000  1
  C  C163  1  0.74040000  0.83350000  0.57290000  1
  C  C164  1  0.75640000  0.53360000  0.70090000  1
  C  C165  1  0.77080000  0.82900000  0.42030000  1
  C  C166  1  0.77310000  0.17900000  0.01260000  1
  C  C167  1  0.78010000  0.89340000  0.06800000  1
  C  C168  1  0.78310000  0.74520000  0.86760000  1
  C  C169  1  0.78720000  0.17460000  0.06760000  1
  C  C170  1  0.79370000  0.84570000  0.48270000  1
  C  C171  1  0.80120000  0.40290000  0.62390000  1
  C  C172  1  0.80480000  0.58590000  0.68420000  1
  C  C173  1  0.81060000  0.36250000  0.51690000  1
  C  C174  1  0.81570000  0.78260000  0.99440000  1
  C  C175  1  0.81640000  0.81170000  0.79530000  1
  C  C176  1  0.83860000  0.84850000  0.75630000  1
  C  C177  1  0.85020000  0.40940000  0.58050000  1
  C  C178  1  0.88930000  0.74470000  0.85050000  1
  C  C179  1  0.89500000  0.90560000  0.10530000  1
  C  C180  1  0.90730000  0.77830000  0.81560000  1
  C  C181  1  0.92910000  0.79350000  0.03150000  1
  C  C182  1  0.93860000  0.97440000  0.16620000  1
  C  C183  1  0.96870000  0.85470000  0.08770000  1
  S  S184  1  0.15690000  0.53234000  0.29755000  1
  S  S185  1  0.23579000  0.29147000  0.08100000  1
  S  S186  1  0.34519000  0.78946000  0.08094000  1
  S  S187  1  0.35930000  0.23494000  0.70252000  1
  S  S188  1  0.64070000  0.76506000  0.29748000  1
  S  S189  1  0.65481000  0.21054000  0.91906000  1
  S  S190  1  0.76421000  0.70853000  0.91900000  1
  S  S191  1  0.84310000  0.46766000  0.70245000  1
  O  O192  1  0.03040000  0.50420000  0.28390000  1
  O  O193  1  0.04180000  0.98240000  0.19870000  1
  O  O194  1  0.06230000  0.14680000  0.25585000  1
  O  O195  1  0.13200000  0.98140000  0.82238000  1
  O  O196  1  0.15450000  0.34230000  0.08512000  1
  O  O197  1  0.17710000  0.11830000  0.38986000  1
  O  O198  1  0.19000000  0.84040000  0.82249000  1
  O  O199  1  0.19500000  0.56130000  0.26000000  1
  O  O200  1  0.23040000  0.77910000  0.09180000  1
  O  O201  1  0.24400000  0.12251000  0.26355000  1
  O  O202  1  0.24760000  0.22130000  0.71630000  1
  O  O203  1  0.25600000  0.99080000  0.29612000  1
  O  O204  1  0.28690000  0.72890000  0.60996000  1
  O  O205  1  0.30620000  0.89080000  0.74408000  1
  O  O206  1  0.33090000  0.20150000  0.41310000  1
  O  O207  1  0.34220000  0.78390000  0.80114000  1
  O  O208  1  0.36090000  0.31240000  0.09177000  1
  O  O209  1  0.40800000  0.26950000  0.33598000  1
  O  O210  1  0.41780000  0.78880000  0.58710000  1
  O  O211  1  0.42800000  0.06620000  0.33573000  1
  O  O212  1  0.43050000  0.74280000  0.08515000  1
  O  O213  1  0.43420000  0.30190000  0.74080000  1
  O  O214  1  0.46010000  0.69530000  0.70373000  1
  O  O215  1  0.48130000  0.85923000  0.73621000  1
  O  O216  1  0.51870000  0.14077000  0.26379000  1
  O  O217  1  0.53990000  0.30470000  0.29627000  1
  O  O218  1  0.56580000  0.69810000  0.25920000  1
  O  O219  1  0.56950000  0.25720000  0.91485000  1
  O  O220  1  0.57200000  0.93380000  0.66427000  1
  O  O221  1  0.58220000  0.21120000  0.41290000  1
  O  O222  1  0.59200000  0.73050000  0.66402000  1
  O  O223  1  0.63910000  0.68760000  0.90823000  1
  O  O224  1  0.65780000  0.21610000  0.19886000  1
  O  O225  1  0.66910000  0.79850000  0.58690000  1
  O  O226  1  0.69380000  0.10920000  0.25592000  1
  O  O227  1  0.71310000  0.27110000  0.39004000  1
  O  O228  1  0.74400000  0.00920000  0.70388000  1
  O  O229  1  0.75240000  0.77870000  0.28370000  1
  O  O230  1  0.75600000  0.87749000  0.73645000  1
  O  O231  1  0.76960000  0.22090000  0.90820000  1
  O  O232  1  0.80500000  0.43870000  0.74000000  1
  O  O233  1  0.81000000  0.15960000  0.17751000  1
  O  O234  1  0.82290000  0.88170000  0.61014000  1
  O  O235  1  0.84550000  0.65770000  0.91488000  1
  O  O236  1  0.86800000  0.01860000  0.17762000  1
  O  O237  1  0.93770000  0.85320000  0.74415000  1
  O  O238  1  0.95820000  0.01760000  0.80130000  1
  O  O239  1  0.96960000  0.49580000  0.71610000  1
