# generated using pymatgen
data_CuPHC2O3
_symmetry_space_group_name_H-M   'P 1'
_cell_length_a   10.02200000
_cell_length_b   10.18200000
_cell_length_c   10.61900000
_cell_angle_alpha   72.98300000
_cell_angle_beta   62.18200000
_cell_angle_gamma   63.99700000
_symmetry_Int_Tables_number   1
_chemical_formula_structural   CuPHC2O3
_chemical_formula_sum   'Cu6 P6 H6 C12 O18'
_cell_volume   856.06032460
_cell_formula_units_Z   6
loop_
 _symmetry_equiv_pos_site_id
 _symmetry_equiv_pos_as_xyz
  1  'x, y, z'
loop_
 _atom_site_type_symbol
 _atom_site_label
 _atom_site_symmetry_multiplicity
 _atom_site_fract_x
 _atom_site_fract_y
 _atom_site_fract_z
 _atom_site_occupancy
  Cu  Cu0  1  0.22877000  0.49947000  0.53742000  1
  Cu  Cu1  1  0.24864000  0.14313000  0.18630000  1
  Cu  Cu2  1  0.42925000  0.18211000  0.80104000  1
  Cu  Cu3  1  0.57075000  0.81789000  0.19896000  1
  Cu  Cu4  1  0.75136000  0.85687000  0.81370000  1
  Cu  Cu5  1  0.77123000  0.50053000  0.46258000  1
  P  P6  1  0.14546000  0.45748000  0.28405000  1
  P  P7  1  0.40728000  0.89079000  0.99253000  1
  P  P8  1  0.42056000  0.51449000  0.69549000  1
  P  P9  1  0.57944000  0.48551000  0.30451000  1
  P  P10  1  0.59272000  0.10921000  0.00747000  1
  P  P11  1  0.85454000  0.54252000  0.71595000  1
  H  H12  1  0.24100000  0.45800000  0.98200000  1
  H  H13  1  0.26900000  0.68800000  0.20700000  1
  H  H14  1  0.45300000  0.74900000  0.78300000  1
  H  H15  1  0.54700000  0.25100000  0.21700000  1
  H  H16  1  0.73100000  0.31200000  0.79300000  1
  H  H17  1  0.75900000  0.54200000  0.01800000  1
  C  C18  1  0.23750000  0.55600000  0.11770000  1
  C  C19  1  0.27410000  0.51860000  0.98770000  1
  C  C20  1  0.27760000  0.67190000  0.11770000  1
  C  C21  1  0.35580000  0.74470000  0.98860000  1
  C  C22  1  0.35650000  0.58690000  0.85820000  1
  C  C23  1  0.39770000  0.70000000  0.85920000  1
  C  C24  1  0.60230000  0.30000000  0.14080000  1
  C  C25  1  0.64350000  0.41310000  0.14180000  1
  C  C26  1  0.64420000  0.25530000  0.01140000  1
  C  C27  1  0.72240000  0.32810000  0.88230000  1
  C  C28  1  0.72590000  0.48140000  0.01230000  1
  C  C29  1  0.76250000  0.44400000  0.88230000  1
  O  O30  1  0.03160000  0.48930000  0.69380000  1
  O  O31  1  0.16610000  0.49820000  0.39670000  1
  O  O32  1  0.23120000  0.29360000  0.26940000  1
  O  O33  1  0.26670000  0.56030000  0.67070000  1
  O  O34  1  0.27890000  0.96530000  0.12650000  1
  O  O35  1  0.42250000  0.98620000  0.84970000  1
  O  O36  1  0.42730000  0.17350000  0.99470000  1
  O  O37  1  0.45900000  0.41730000  0.42410000  1
  O  O38  1  0.49950000  0.65280000  0.28140000  1
  O  O39  1  0.50050000  0.34720000  0.71860000  1
  O  O40  1  0.54100000  0.58270000  0.57590000  1
  O  O41  1  0.57270000  0.82650000  0.00530000  1
  O  O42  1  0.57750000  0.01380000  0.15030000  1
  O  O43  1  0.72110000  0.03470000  0.87350000  1
  O  O44  1  0.73330000  0.43970000  0.32930000  1
  O  O45  1  0.76880000  0.70640000  0.73060000  1
  O  O46  1  0.83390000  0.50180000  0.60330000  1
  O  O47  1  0.96840000  0.51070000  0.30620000  1
