# generated using pymatgen
data_InH20(C9O2)4
_symmetry_space_group_name_H-M   'P 1'
_cell_length_a   29.11673803
_cell_length_b   29.11673803
_cell_length_c   29.11673803
_cell_angle_alpha   98.52881640
_cell_angle_beta   98.52881640
_cell_angle_gamma   98.52881640
_symmetry_Int_Tables_number   1
_chemical_formula_structural   InH20(C9O2)4
_chemical_formula_sum   'In12 H240 C432 O96'
_cell_volume   23772.94988823
_cell_formula_units_Z   12
loop_
 _symmetry_equiv_pos_site_id
 _symmetry_equiv_pos_as_xyz
  1  'x, y, z'
loop_
 _atom_site_type_symbol
 _atom_site_label
 _atom_site_symmetry_multiplicity
 _atom_site_fract_x
 _atom_site_fract_y
 _atom_site_fract_z
 _atom_site_occupancy
  C  C0  1  0.74276000  0.43199000  0.05187000  1
  C  C1  1  0.54212000  0.16108000  0.91975000  1
  C  C2  1  0.09315000  0.76308000  0.41890000  1
  C  C3  1  0.30720000  0.33420000  0.27200000  1
  C  C4  1  0.83866000  0.10672000  0.56148000  1
  C  C5  1  0.69886000  0.72446000  0.66286000  1
  C  C6  1  0.09656000  0.70033000  0.48208000  1
  C  C7  1  0.20904000  0.63354000  0.77153000  1
  C  C8  1  0.56259000  0.86385000  0.24797000  1
  C  C9  1  0.91718000  0.61967000  0.20100000  1
  C  C10  1  0.76308000  0.41890000  0.09315000  1
  C  C11  1  0.20085000  0.91453000  0.47271000  1
  C  C12  1  0.11957000  0.86878000  0.35569000  1
  C  C13  1  0.96323000  0.98526000  0.92419000  1
  C  C14  1  0.22677000  0.62182000  0.81445000  1
  C  C15  1  0.94987000  0.82563000  0.05623000  1
  C  C16  1  0.04906000  0.07108000  0.00862000  1
  C  C17  1  0.58110000  0.90685000  0.23692000  1
  C  C18  1  0.24121000  0.90976000  0.55304000  1
  C  C19  1  0.08952000  0.39929000  0.75903000  1
  C  C20  1  0.31474000  0.36913000  0.23862000  1
  C  C21  1  0.90976000  0.55304000  0.24121000  1
  C  C22  1  0.75903000  0.08952000  0.39929000  1
  C  C23  1  0.08079000  0.32958000  0.80021000  1
  C  C24  1  0.75920000  0.27998000  0.20505000  1
  C  C25  1  0.71682000  0.58411000  0.81588000  1
  C  C26  1  0.95561000  0.85330000  0.02330000  1
  C  C27  1  0.05308000  0.10000000  0.97139000  1
  C  C28  1  0.96094000  0.17664000  0.70777000  1
  C  C29  1  0.79956000  0.08511000  0.47621000  1
  C  C30  1  0.79344000  0.31590000  0.23248000  1
  C  C31  1  0.16275000  0.89300000  0.39185000  1
  C  C32  1  0.44696000  0.75879000  0.09024000  1
  C  C33  1  0.72363000  0.61534000  0.78477000  1
  C  C34  1  0.32839000  0.43162000  0.17640000  1
  C  C35  1  0.60071000  0.24097000  0.91048000  1
  C  C36  1  0.19158000  0.59828000  0.73248000  1
  C  C37  1  0.43523000  0.65140000  0.16421000  1
  C  C38  1  0.22699000  0.57484000  0.81834000  1
  C  C39  1  0.08346000  0.82253000  0.28085000  1
  C  C40  1  0.00319000  0.20039000  0.74131000  1
  C  C41  1  0.46977000  0.68968000  0.18367000  1
  C  C42  1  0.47621000  0.79956000  0.08511000  1
  C  C43  1  0.94643000  0.28861000  0.53642000  1
  C  C44  1  0.06334000  0.15568000  0.90182000  1
  C  C45  1  0.43199000  0.05187000  0.74276000  1
  C  C46  1  0.24797000  0.56259000  0.86385000  1
  C  C47  1  0.33562000  0.46137000  0.13951000  1
  C  C48  1  0.94813000  0.25724000  0.56801000  1
  C  C49  1  0.46900000  0.13786000  0.72065000  1
  C  C50  1  0.13615000  0.75203000  0.43741000  1
  C  C51  1  0.98526000  0.92419000  0.96323000  1
  C  C52  1  0.76228000  0.23315000  0.20728000  1
  C  C53  1  0.07108000  0.00862000  0.04906000  1
  C  C54  1  0.13443000  0.52069000  0.66226000  1
  C  C55  1  0.13786000  0.72065000  0.46900000  1
  C  C56  1  0.92503000  0.12949000  0.63336000  1
  C  C57  1  0.72446000  0.66286000  0.69886000  1
  C  C58  1  0.06915000  0.18517000  0.86574000  1
  C  C59  1  0.24074000  0.93502000  0.45790000  1
  C  C60  1  0.33420000  0.27200000  0.30720000  1
  C  C61  1  0.53958000  0.77930000  0.20952000  1
  C  C62  1  0.12359000  0.84435000  0.31214000  1
  C  C63  1  0.92126000  0.59004000  0.16106000  1
  C  C64  1  0.83073000  0.30499000  0.26214000  1
  C  C65  1  0.28861000  0.53642000  0.94643000  1
  C  C66  1  0.19181000  0.55131000  0.73638000  1
  C  C67  1  0.72800000  0.69280000  0.66580000  1
  C  C68  1  0.33714000  0.30114000  0.27554000  1
  C  C69  1  0.59004000  0.16106000  0.92126000  1
  C  C70  1  0.07581000  0.03677000  0.01474000  1
  C  C71  1  0.20952000  0.53958000  0.77930000  1
  C  C72  1  0.99138000  0.95094000  0.92892000  1
  C  C73  1  0.35994000  0.38486000  0.23091000  1
  C  C74  1  0.57484000  0.81834000  0.22699000  1
  C  C75  1  0.91489000  0.52379000  0.20044000  1
  C  C76  1  0.31086000  0.52408000  0.98932000  1
  C  C77  1  0.20194000  0.91429000  0.37676000  1
  C  C78  1  0.11300000  0.48650000  0.62650000  1
  C  C79  1  0.96528000  0.15166000  0.66445000  1
  C  C80  1  0.36677000  0.41611000  0.19979000  1
  C  C81  1  0.06658000  0.08277000  0.92922000  1
  C  C82  1  0.61967000  0.20100000  0.91718000  1
  C  C83  1  0.17022000  0.51286000  0.69529000  1
  C  C84  1  0.40740000  0.57658000  0.10582000  1
  C  C85  1  0.79900000  0.08282000  0.38033000  1
  C  C86  1  0.91975000  0.54212000  0.16108000  1
  C  C87  1  0.24203000  0.93542000  0.41031000  1
  C  C88  1  0.07132000  0.10900000  0.89471000  1
  C  C89  1  0.83892000  0.08025000  0.45788000  1
  C  C90  1  0.79959000  0.22224000  0.23695000  1
  C  C91  1  0.44407000  0.61808000  0.12926000  1
  C  C92  1  0.98932000  0.31086000  0.52408000  1
  C  C93  1  0.83381000  0.25816000  0.26437000  1
  C  C94  1  0.91453000  0.47271000  0.20085000  1
  C  C95  1  0.51286000  0.69529000  0.17022000  1
  C  C96  1  0.46358000  0.05357000  0.71139000  1
  C  C97  1  0.18166000  0.77301000  0.42516000  1
  C  C98  1  0.27935000  0.53100000  0.86214000  1
  C  C99  1  0.48208000  0.09656000  0.70033000  1
  C  C100  1  0.08277000  0.92922000  0.06658000  1
  C  C101  1  0.52729000  0.79915000  0.08547000  1
  C  C102  1  0.93502000  0.45790000  0.24074000  1
  C  C103  1  0.55131000  0.73638000  0.19181000  1
  C  C104  1  0.10000000  0.97139000  0.05308000  1
  C  C105  1  0.56148000  0.83866000  0.10672000  1
  C  C106  1  0.29967000  0.51792000  0.90344000  1
  C  C107  1  0.38486000  0.23091000  0.35994000  1
  C  C108  1  0.36913000  0.23862000  0.31474000  1
  C  C109  1  0.89328000  0.43852000  0.16134000  1
  C  C110  1  0.83894000  0.07874000  0.40996000  1
  C  C111  1  0.80021000  0.08079000  0.32958000  1
  C  C112  1  0.80075000  0.17259000  0.23864000  1
  C  C113  1  0.22070000  0.79048000  0.46042000  1
  C  C114  1  0.12926000  0.44407000  0.61808000  1
  C  C115  1  0.62182000  0.81445000  0.22677000  1
  C  C116  1  0.76138000  0.68526000  0.63087000  1
  C  C117  1  0.18367000  0.46977000  0.68968000  1
  C  C118  1  0.02861000  0.94692000  0.90000000  1
  C  C119  1  0.66445000  0.96528000  0.15166000  1
  C  C120  1  0.63336000  0.92503000  0.12949000  1
  C  C121  1  0.98309000  0.43108000  0.32218000  1
  C  C122  1  0.28477000  0.95984000  0.39607000  1
  C  C123  1  0.93542000  0.41031000  0.24203000  1
  C  C124  1  0.18555000  0.77323000  0.37818000  1
  C  C125  1  0.67042000  0.19979000  0.91921000  1
  C  C126  1  0.00364000  0.41894000  0.36384000  1
  C  C127  1  0.10582000  0.40740000  0.57658000  1
  C  C128  1  0.32218000  0.98309000  0.43108000  1
  C  C129  1  0.78477000  0.72363000  0.61534000  1
  C  C130  1  0.89300000  0.39185000  0.16275000  1
  C  C131  1  0.48650000  0.62650000  0.11300000  1
  C  C132  1  0.02330000  0.95561000  0.85330000  1
  C  C133  1  0.95984000  0.39607000  0.28477000  1
  C  C134  1  0.16421000  0.43523000  0.65140000  1
  C  C135  1  0.52069000  0.66226000  0.13443000  1
  C  C136  1  0.91429000  0.37676000  0.20194000  1
  C  C137  1  0.10900000  0.89471000  0.07132000  1
  C  C138  1  0.47592000  0.01068000  0.68914000  1
  C  C139  1  0.84435000  0.31214000  0.12359000  1
  C  C140  1  0.54210000  0.75926000  0.06498000  1
  C  C141  1  0.00099000  0.37170000  0.36810000  1
  C  C142  1  0.86878000  0.35569000  0.11957000  1
  C  C143  1  0.41611000  0.19979000  0.36677000  1
  C  C144  1  0.26362000  0.80819000  0.44869000  1
  C  C145  1  0.28901000  0.95715000  0.34886000  1
  C  C146  1  0.60815000  0.83725000  0.10700000  1
  C  C147  1  0.14670000  0.97670000  0.04439000  1
  C  C148  1  0.59828000  0.73248000  0.19158000  1
  C  C149  1  0.02200000  0.35590000  0.41500000  1
  C  C150  1  0.31032000  0.81633000  0.53023000  1
  C  C151  1  0.35590000  0.41500000  0.02200000  1
  C  C152  1  0.95715000  0.34886000  0.28901000  1
  C  C153  1  0.64431000  0.88043000  0.13122000  1
  C  C154  1  0.38466000  0.21523000  0.27637000  1
  C  C155  1  0.70777000  0.96094000  0.17664000  1
  C  C156  1  0.74131000  0.00319000  0.20039000  1
  C  C157  1  0.82253000  0.28085000  0.08346000  1
  C  C158  1  0.76909000  0.64006000  0.61514000  1
  C  C159  1  0.63354000  0.77153000  0.20904000  1
  C  C160  1  0.97773000  0.33668000  0.33068000  1
  C  C161  1  0.07078000  0.93342000  0.91723000  1
  C  C162  1  0.30471000  0.82978000  0.48714000  1
  C  C163  1  0.34860000  0.83579000  0.56477000  1
  C  C164  1  0.87051000  0.36664000  0.07497000  1
  C  C165  1  0.22847000  0.79096000  0.36646000  1
  C  C166  1  0.36384000  0.00364000  0.41894000  1
  C  C167  1  0.17259000  0.23864000  0.80075000  1
  C  C168  1  0.82336000  0.29223000  0.03906000  1
  C  C169  1  0.26752000  0.80842000  0.40172000  1
  C  C170  1  0.84834000  0.33555000  0.03472000  1
  C  C171  1  0.33774000  0.86557000  0.47931000  1
  C  C172  1  0.81588000  0.71682000  0.58411000  1
  C  C173  1  0.05623000  0.94987000  0.82563000  1
  C  C174  1  0.38192000  0.87074000  0.55593000  1
  C  C175  1  0.68786000  0.87641000  0.15565000  1
  C  C176  1  0.79961000  0.25869000  0.99681000  1
  C  C177  1  0.71915000  0.91654000  0.17747000  1
  C  C178  1  0.15568000  0.90182000  0.06334000  1
  C  C179  1  0.37350000  0.88700000  0.51350000  1
  C  C180  1  0.33068000  0.97773000  0.33668000  1
  C  C181  1  0.17437000  0.94377000  0.05013000  1
  C  C182  1  0.23248000  0.79344000  0.31590000  1
  C  C183  1  0.58969000  0.75797000  0.06458000  1
  C  C184  1  0.43162000  0.17640000  0.32839000  1
  C  C185  1  0.42342000  0.89418000  0.59260000  1
  C  C186  1  0.62324000  0.79806000  0.08571000  1
  C  C187  1  0.36810000  0.00099000  0.37170000  1
  C  C188  1  0.41589000  0.18412000  0.28318000  1
  C  C189  1  0.33668000  0.33068000  0.97773000  1
  C  C190  1  0.20505000  0.75920000  0.27998000  1
  C  C191  1  0.37170000  0.36810000  0.00099000  1
  C  C192  1  0.80021000  0.63323000  0.58389000  1
  C  C193  1  0.26214000  0.83073000  0.30499000  1
  C  C194  1  0.10529000  0.92868000  0.89100000  1
  C  C195  1  0.68410000  0.76752000  0.20656000  1
  C  C196  1  0.72002000  0.79495000  0.24080000  1
  C  C197  1  0.82360000  0.67161000  0.56838000  1
  C  C198  1  0.22224000  0.23695000  0.79959000  1
  C  C199  1  0.09818000  0.93666000  0.84432000  1
  C  C200  1  0.25816000  0.26437000  0.83381000  1
  C  C201  1  0.20728000  0.76228000  0.23315000  1
  C  C202  1  0.18517000  0.86574000  0.06915000  1
  C  C203  1  0.26437000  0.83381000  0.25816000  1
  C  C204  1  0.56892000  0.67782000  0.01691000  1
  C  C205  1  0.46137000  0.13951000  0.33562000  1
  C  C206  1  0.34886000  0.28901000  0.95715000  1
  C  C207  1  0.23695000  0.79959000  0.22224000  1
  C  C208  1  0.41500000  0.02200000  0.35590000  1
  C  C209  1  0.60393000  0.71523000  0.04016000  1
  C  C210  1  0.41894000  0.36384000  0.00364000  1
  C  C211  1  0.86574000  0.06915000  0.18517000  1
  C  C212  1  0.13951000  0.33562000  0.46137000  1
  C  C213  1  0.69501000  0.73786000  0.16927000  1
  C  C214  1  0.76136000  0.19925000  0.82741000  1
  C  C215  1  0.23315000  0.20728000  0.76228000  1
  C  C216  1  0.76685000  0.79272000  0.23772000  1
  C  C217  1  0.23864000  0.80075000  0.17259000  1
  C  C218  1  0.30499000  0.26214000  0.83073000  1
  C  C219  1  0.86049000  0.66438000  0.53863000  1
  C  C220  1  0.13426000  0.93085000  0.81483000  1
  C  C221  1  0.58106000  0.63616000  0.99636000  1
  C  C222  1  0.39607000  0.28477000  0.95984000  1
  C  C223  1  0.58500000  0.97800000  0.64410000  1
  C  C224  1  0.76305000  0.20041000  0.77776000  1
  C  C225  1  0.65114000  0.71099000  0.04285000  1
  C  C226  1  0.53863000  0.86049000  0.66438000  1
  C  C227  1  0.43108000  0.32218000  0.98309000  1
  C  C228  1  0.73563000  0.16619000  0.74184000  1
  C  C229  1  0.81483000  0.13426000  0.93085000  1
  C  C230  1  0.79272000  0.23772000  0.76685000  1
  C  C231  1  0.74184000  0.73563000  0.16619000  1
  C  C232  1  0.90182000  0.06334000  0.15568000  1
  C  C233  1  0.77776000  0.76305000  0.20041000  1
  C  C234  1  0.17640000  0.32839000  0.43162000  1
  C  C235  1  0.27998000  0.20505000  0.75920000  1
  C  C236  1  0.31590000  0.23248000  0.79344000  1
  C  C237  1  0.89471000  0.07132000  0.10900000  1
  C  C238  1  0.73786000  0.16927000  0.69501000  1
  C  C239  1  0.19979000  0.36677000  0.41611000  1
  C  C240  1  0.62830000  0.63190000  0.99901000  1
  C  C241  1  0.79495000  0.24080000  0.72002000  1
  C  C242  1  0.66332000  0.66932000  0.02227000  1
  C  C243  1  0.58411000  0.81588000  0.71682000  1
  C  C244  1  0.63190000  0.99901000  0.62830000  1
  C  C245  1  0.37676000  0.20194000  0.91429000  1
  C  C246  1  0.57658000  0.10582000  0.40740000  1
  C  C247  1  0.56838000  0.82360000  0.67161000  1
  C  C248  1  0.41031000  0.24203000  0.93542000  1
  C  C249  1  0.76752000  0.20656000  0.68410000  1
  C  C250  1  0.82563000  0.05623000  0.94987000  1
  C  C251  1  0.66932000  0.02227000  0.66332000  1
  C  C252  1  0.62650000  0.11300000  0.48650000  1
  C  C253  1  0.84432000  0.09818000  0.93666000  1
  C  C254  1  0.28085000  0.08346000  0.82253000  1
  C  C255  1  0.20039000  0.74131000  0.00319000  1
  C  C256  1  0.31214000  0.12359000  0.84435000  1
  C  C257  1  0.61808000  0.12926000  0.44407000  1
  C  C258  1  0.94377000  0.05013000  0.17437000  1
  C  C259  1  0.18412000  0.28318000  0.41589000  1
  C  C260  1  0.66226000  0.13443000  0.52069000  1
  C  C261  1  0.15166000  0.66445000  0.96528000  1
  C  C262  1  0.73248000  0.19158000  0.59828000  1
  C  C263  1  0.17664000  0.70777000  0.96094000  1
  C  C264  1  0.82741000  0.76136000  0.19925000  1
  C  C265  1  0.63616000  0.99636000  0.58106000  1
  C  C266  1  0.77153000  0.20904000  0.63354000  1
  C  C267  1  0.12949000  0.63336000  0.92503000  1
  C  C268  1  0.65140000  0.16421000  0.43523000  1
  C  C269  1  0.69529000  0.17022000  0.51286000  1
  C  C270  1  0.92922000  0.06658000  0.08277000  1
  C  C271  1  0.02227000  0.66332000  0.66932000  1
  C  C272  1  0.36646000  0.22847000  0.79096000  1
  C  C273  1  0.23091000  0.35994000  0.38486000  1
  C  C274  1  0.17747000  0.71915000  0.91654000  1
  C  C275  1  0.25869000  0.99681000  0.79961000  1
  C  C276  1  0.29223000  0.03906000  0.82336000  1
  C  C277  1  0.61534000  0.78477000  0.72363000  1
  C  C278  1  0.35569000  0.11957000  0.86878000  1
  C  C279  1  0.04285000  0.65114000  0.71099000  1
  C  C280  1  0.64410000  0.58500000  0.97800000  1
  C  C281  1  0.68968000  0.18367000  0.46977000  1
  C  C282  1  0.97800000  0.64410000  0.58500000  1
  C  C283  1  0.40172000  0.26752000  0.80842000  1
  C  C284  1  0.85330000  0.02330000  0.95561000  1
  C  C285  1  0.39185000  0.16275000  0.89300000  1
  C  C286  1  0.71099000  0.04285000  0.65114000  1
  C  C287  1  0.73638000  0.19181000  0.55131000  1
  C  C288  1  0.58389000  0.80021000  0.63323000  1
  C  C289  1  0.13122000  0.64431000  0.88043000  1
  C  C290  1  0.99901000  0.62830000  0.63190000  1
  C  C291  1  0.45790000  0.24074000  0.93502000  1
  C  C292  1  0.15565000  0.68786000  0.87641000  1
  C  C293  1  0.52408000  0.98932000  0.31086000  1
  C  C294  1  0.89100000  0.10529000  0.92868000  1
  C  C295  1  0.08571000  0.62324000  0.79806000  1
  C  C296  1  0.47931000  0.33774000  0.86557000  1
  C  C297  1  0.83579000  0.56477000  0.34860000  1
  C  C298  1  0.04016000  0.60393000  0.71523000  1
  C  C299  1  0.97670000  0.04439000  0.14670000  1
  C  C300  1  0.51350000  0.37350000  0.88700000  1
  C  C301  1  0.10700000  0.60815000  0.83725000  1
  C  C302  1  0.21523000  0.27637000  0.38466000  1
  C  C303  1  0.67782000  0.01691000  0.56892000  1
  C  C304  1  0.89418000  0.59260000  0.42342000  1
  C  C305  1  0.99636000  0.58106000  0.63616000  1
  C  C306  1  0.32958000  0.80021000  0.08079000  1
  C  C307  1  0.81445000  0.22677000  0.62182000  1
  C  C308  1  0.06458000  0.58969000  0.75797000  1
  C  C309  1  0.71523000  0.04016000  0.60393000  1
  C  C310  1  0.01691000  0.56892000  0.67782000  1
  C  C311  1  0.36664000  0.07497000  0.87051000  1
  C  C312  1  0.33555000  0.03472000  0.84834000  1
  C  C313  1  0.97139000  0.05308000  0.10000000  1
  C  C314  1  0.81633000  0.53023000  0.31032000  1
  C  C315  1  0.23862000  0.31474000  0.36913000  1
  C  C316  1  0.37818000  0.18555000  0.77323000  1
  C  C317  1  0.87074000  0.55593000  0.38192000  1
  C  C318  1  0.77930000  0.20952000  0.53958000  1
  C  C319  1  0.19925000  0.82741000  0.76136000  1
  C  C320  1  0.19979000  0.91921000  0.67042000  1
  C  C321  1  0.16106000  0.92126000  0.59004000  1
  C  C322  1  0.10672000  0.56148000  0.83866000  1
  C  C323  1  0.63087000  0.76138000  0.68526000  1
  C  C324  1  0.61514000  0.76909000  0.64006000  1
  C  C325  1  0.70033000  0.48208000  0.09656000  1
  C  C326  1  0.43852000  0.16134000  0.89328000  1
  C  C327  1  0.90000000  0.02861000  0.94692000  1
  C  C328  1  0.44869000  0.26362000  0.80819000  1
  C  C329  1  0.06498000  0.54210000  0.75926000  1
  C  C330  1  0.47271000  0.20085000  0.91453000  1
  C  C331  1  0.91723000  0.07078000  0.93342000  1
  C  C332  1  0.51792000  0.90344000  0.29967000  1
  C  C333  1  0.72065000  0.46900000  0.13786000  1
  C  C334  1  0.81834000  0.22699000  0.57484000  1
  C  C335  1  0.53642000  0.94643000  0.28861000  1
  C  C336  1  0.48714000  0.30471000  0.82978000  1
  C  C337  1  0.08547000  0.52729000  0.79915000  1
  C  C338  1  0.16619000  0.74184000  0.73563000  1
  C  C339  1  0.01068000  0.68914000  0.47592000  1
  C  C340  1  0.55593000  0.38192000  0.87074000  1
  C  C341  1  0.20041000  0.77776000  0.76305000  1
  C  C342  1  0.16108000  0.91975000  0.54212000  1
  C  C343  1  0.92868000  0.89100000  0.10529000  1
  C  C344  1  0.75797000  0.06458000  0.58969000  1
  C  C345  1  0.08025000  0.45788000  0.83892000  1
  C  C346  1  0.20100000  0.91718000  0.61967000  1
  C  C347  1  0.59260000  0.42342000  0.89418000  1
  C  C348  1  0.82978000  0.48714000  0.30471000  1
  C  C349  1  0.93342000  0.91723000  0.07078000  1
  C  C350  1  0.38033000  0.79900000  0.08282000  1
  C  C351  1  0.63323000  0.58389000  0.80021000  1
  C  C352  1  0.03472000  0.84834000  0.33555000  1
  C  C353  1  0.88700000  0.51350000  0.37350000  1
  C  C354  1  0.79806000  0.08571000  0.62324000  1
  C  C355  1  0.68914000  0.47592000  0.01068000  1
  C  C356  1  0.08511000  0.47621000  0.79956000  1
  C  C357  1  0.42516000  0.18166000  0.77301000  1
  C  C358  1  0.64006000  0.61514000  0.76909000  1
  C  C359  1  0.00862000  0.04906000  0.07108000  1
  C  C360  1  0.79048000  0.46042000  0.22070000  1
  C  C361  1  0.92419000  0.96323000  0.98526000  1
  C  C362  1  0.40996000  0.83894000  0.07874000  1
  C  C363  1  0.66286000  0.69886000  0.72446000  1
  C  C364  1  0.27200000  0.30720000  0.33420000  1
  C  C365  1  0.80819000  0.44869000  0.26362000  1
  C  C366  1  0.71139000  0.46358000  0.05357000  1
  C  C367  1  0.16927000  0.69501000  0.73786000  1
  C  C368  1  0.07874000  0.40996000  0.83894000  1
  C  C369  1  0.87641000  0.15565000  0.68786000  1
  C  C370  1  0.46042000  0.22070000  0.79048000  1
  C  C371  1  0.66580000  0.72800000  0.69280000  1
  C  C372  1  0.75926000  0.06498000  0.54210000  1
  C  C373  1  0.93085000  0.81483000  0.13426000  1
  C  C374  1  0.07497000  0.87051000  0.36664000  1
  C  C375  1  0.27554000  0.33714000  0.30114000  1
  C  C376  1  0.86214000  0.27935000  0.53100000  1
  C  C377  1  0.86557000  0.47931000  0.33774000  1
  C  C378  1  0.92892000  0.99138000  0.95094000  1
  C  C379  1  0.23772000  0.76685000  0.79272000  1
  C  C380  1  0.01474000  0.07581000  0.03677000  1
  C  C381  1  0.86385000  0.24797000  0.56259000  1
  C  C382  1  0.53100000  0.86214000  0.27935000  1
  C  C383  1  0.05187000  0.74276000  0.43199000  1
  C  C384  1  0.66438000  0.53863000  0.86049000  1
  C  C385  1  0.75203000  0.43741000  0.13615000  1
  C  C386  1  0.56801000  0.94813000  0.25724000  1
  C  C387  1  0.93666000  0.84432000  0.09818000  1
  C  C388  1  0.05357000  0.71139000  0.46358000  1
  C  C389  1  0.52379000  0.20044000  0.91489000  1
  C  C390  1  0.53023000  0.31032000  0.81633000  1
  C  C391  1  0.99681000  0.79961000  0.25869000  1
  C  C392  1  0.91654000  0.17747000  0.71915000  1
  C  C393  1  0.77301000  0.42516000  0.18166000  1
  C  C394  1  0.56477000  0.34860000  0.83579000  1
  C  C395  1  0.80842000  0.40172000  0.26752000  1
  C  C396  1  0.39929000  0.75903000  0.08952000  1
  C  C397  1  0.67161000  0.56838000  0.82360000  1
  C  C398  1  0.27637000  0.38466000  0.21523000  1
  C  C399  1  0.55304000  0.24121000  0.90976000  1
  C  C400  1  0.83725000  0.10700000  0.60815000  1
  C  C401  1  0.20656000  0.68410000  0.76752000  1
  C  C402  1  0.20044000  0.91489000  0.52379000  1
  C  C403  1  0.03906000  0.82336000  0.29223000  1
  C  C404  1  0.94692000  0.90000000  0.02861000  1
  C  C405  1  0.04439000  0.14670000  0.97670000  1
  C  C406  1  0.28318000  0.41589000  0.18412000  1
  C  C407  1  0.24080000  0.72002000  0.79495000  1
  C  C408  1  0.91921000  0.67042000  0.19979000  1
  C  C409  1  0.24097000  0.91048000  0.60071000  1
  C  C410  1  0.09024000  0.44696000  0.75879000  1
  C  C411  1  0.68526000  0.63087000  0.76138000  1
  C  C412  1  0.91048000  0.60071000  0.24097000  1
  C  C413  1  0.75879000  0.09024000  0.44696000  1
  C  C414  1  0.41890000  0.09315000  0.76308000  1
  C  C415  1  0.95094000  0.92892000  0.99138000  1
  C  C416  1  0.05013000  0.17437000  0.94377000  1
  C  C417  1  0.77323000  0.37818000  0.18555000  1
  C  C418  1  0.03677000  0.01474000  0.07581000  1
  C  C419  1  0.88043000  0.13122000  0.64431000  1
  C  C420  1  0.79915000  0.08547000  0.52729000  1
  C  C421  1  0.23692000  0.58110000  0.90685000  1
  C  C422  1  0.08282000  0.38033000  0.79900000  1
  C  C423  1  0.43741000  0.13615000  0.75203000  1
  C  C424  1  0.79096000  0.36646000  0.22847000  1
  C  C425  1  0.90344000  0.29967000  0.51792000  1
  C  C426  1  0.30114000  0.27554000  0.33714000  1
  C  C427  1  0.16134000  0.89328000  0.43852000  1
  C  C428  1  0.69280000  0.66580000  0.72800000  1
  C  C429  1  0.90685000  0.23692000  0.58110000  1
  C  C430  1  0.45788000  0.83892000  0.08025000  1
  C  C431  1  0.25724000  0.56801000  0.94813000  1
  H  H432  1  0.09200000  0.78410000  0.39780000  1
  H  H433  1  0.90590000  0.54070000  0.26830000  1
  H  H434  1  0.26580000  0.71270000  0.81480000  1
  H  H435  1  0.46360000  0.71250000  0.20680000  1
  H  H436  1  0.76160000  0.35460000  0.15950000  1
  H  H437  1  0.26790000  0.90640000  0.62010000  1
  H  H438  1  0.59370000  0.35200000  0.82560000  1
  H  H439  1  0.47760000  0.86640000  0.07790000  1
  H  H440  1  0.09770000  0.67930000  0.50320000  1
  H  H441  1  0.70090000  0.74410000  0.64070000  1
  H  H442  1  0.50810000  0.78180000  0.20970000  1
  H  H443  1  0.96780000  0.00470000  0.90210000  1
  H  H444  1  0.12510000  0.55000000  0.66490000  1
  H  H445  1  0.17980000  0.60610000  0.70380000  1
  H  H446  1  0.75020000  0.41960000  0.02310000  1
  H  H447  1  0.86590000  0.12060000  0.55240000  1
  H  H448  1  0.95470000  0.79460000  0.05090000  1
  H  H449  1  0.41960000  0.02310000  0.75020000  1
  H  H450  1  0.62010000  0.26790000  0.90640000  1
  H  H451  1  0.09360000  0.37990000  0.73210000  1
  H  H452  1  0.08660000  0.49110000  0.60660000  1
  H  H453  1  0.78410000  0.39780000  0.09200000  1
  H  H454  1  0.74250000  0.57370000  0.83160000  1
  H  H455  1  0.60220000  0.90800000  0.21590000  1
  H  H456  1  0.73940000  0.20910000  0.18890000  1
  H  H457  1  0.48140000  0.16660000  0.71320000  1
  H  H458  1  0.26830000  0.90590000  0.54070000  1
  H  H459  1  0.45930000  0.73170000  0.09410000  1
  H  H460  1  0.96570000  0.84090000  0.99600000  1
  H  H461  1  0.85370000  0.32900000  0.28050000  1
  H  H462  1  0.75390000  0.62590000  0.77970000  1
  H  H463  1  0.26730000  0.94880000  0.48020000  1
  H  H464  1  0.05210000  0.92450000  0.07260000  1
  H  H465  1  0.08630000  0.80690000  0.25140000  1
  H  H466  1  0.92510000  0.60200000  0.13380000  1
  H  H467  1  0.37450000  0.24660000  0.38560000  1
  H  H468  1  0.55240000  0.86590000  0.12060000  1
  H  H469  1  0.97690000  0.24980000  0.58040000  1
  H  H470  1  0.20970000  0.50810000  0.78180000  1
  H  H471  1  0.92780000  0.11300000  0.60430000  1
  H  H472  1  0.16660000  0.71320000  0.48140000  1
  H  H473  1  0.00470000  0.90210000  0.96780000  1
  H  H474  1  0.20180000  0.91470000  0.34490000  1
  H  H475  1  0.60200000  0.13380000  0.92510000  1
  H  H476  1  0.74410000  0.64070000  0.70090000  1
  H  H477  1  0.38560000  0.37450000  0.24660000  1
  H  H478  1  0.94880000  0.48020000  0.26730000  1
  H  H479  1  0.21820000  0.79030000  0.49190000  1
  H  H480  1  0.15310000  0.84270000  0.30420000  1
  H  H481  1  0.35930000  0.29910000  0.25590000  1
  H  H482  1  0.60430000  0.92780000  0.11300000  1
  H  H483  1  0.09790000  0.03220000  0.99530000  1
  H  H484  1  0.65660000  0.99490000  0.14990000  1
  H  H485  1  0.07260000  0.05210000  0.92450000  1
  H  H486  1  0.39710000  0.42670000  0.19460000  1
  H  H487  1  0.87940000  0.44760000  0.13410000  1
  H  H488  1  0.86640000  0.07790000  0.47760000  1
  H  H489  1  0.77970000  0.75390000  0.62590000  1
  H  H490  1  0.85880000  0.25090000  0.28420000  1
  H  H491  1  0.99490000  0.14990000  0.65660000  1
  H  H492  1  0.99600000  0.96570000  0.84090000  1
  H  H493  1  0.98490000  0.46260000  0.31930000  1
  H  H494  1  0.92210000  0.52240000  0.13360000  1
  H  H495  1  0.31930000  0.98490000  0.46260000  1
  H  H496  1  0.07980000  0.09610000  0.86670000  1
  H  H497  1  0.15950000  0.76160000  0.35460000  1
  H  H498  1  0.01920000  0.44240000  0.38890000  1
  H  H499  1  0.64540000  0.84050000  0.23840000  1
  H  H500  1  0.28680000  0.51860000  0.83340000  1
  H  H501  1  0.84270000  0.30420000  0.15310000  1
  H  H502  1  0.50320000  0.09770000  0.67930000  1
  H  H503  1  0.20680000  0.46360000  0.71250000  1
  H  H504  1  0.32070000  0.49680000  0.90230000  1
  H  H505  1  0.28750000  0.79320000  0.53640000  1
  H  H506  1  0.09610000  0.86670000  0.07980000  1
  H  H507  1  0.51980000  0.73270000  0.05120000  1
  H  H508  1  0.86620000  0.07490000  0.39800000  1
  H  H509  1  0.26400000  0.94160000  0.32540000  1
  H  H510  1  0.42670000  0.19460000  0.39710000  1
  H  H511  1  0.75340000  0.61440000  0.62550000  1
  H  H512  1  0.07550000  0.92740000  0.94790000  1
  H  H513  1  0.80690000  0.25140000  0.08630000  1
  H  H514  1  0.15910000  0.00400000  0.03430000  1
  H  H515  1  0.37410000  0.22030000  0.24610000  1
  H  H516  1  0.91470000  0.34490000  0.20180000  1
  H  H517  1  0.35200000  0.82560000  0.59370000  1
  H  H518  1  0.49110000  0.60660000  0.08660000  1
  H  H519  1  0.94160000  0.32540000  0.26400000  1
  H  H520  1  0.17440000  0.40630000  0.64800000  1
  H  H521  1  0.30500000  0.33350000  0.97590000  1
  H  H522  1  0.88700000  0.39570000  0.07220000  1
  H  H523  1  0.55000000  0.66490000  0.12510000  1
  H  H524  1  0.97590000  0.30500000  0.33350000  1
  H  H525  1  0.38890000  0.01920000  0.44240000  1
  H  H526  1  0.60610000  0.70380000  0.17980000  1
  H  H527  1  0.71270000  0.81480000  0.26580000  1
  H  H528  1  0.33510000  0.87490000  0.45000000  1
  H  H529  1  0.83160000  0.74250000  0.57370000  1
  H  H530  1  0.18520000  0.73420000  0.28730000  1
  H  H531  1  0.85010000  0.34340000  0.00510000  1
  H  H532  1  0.05090000  0.95470000  0.79460000  1
  H  H533  1  0.25090000  0.28420000  0.85880000  1
  H  H534  1  0.39340000  0.91340000  0.50890000  1
  H  H535  1  0.29620000  0.82020000  0.39390000  1
  H  H536  1  0.28050000  0.85370000  0.32900000  1
  H  H537  1  0.53740000  0.68070000  0.01510000  1
  H  H538  1  0.33350000  0.97590000  0.30500000  1
  H  H539  1  0.69580000  0.84690000  0.15730000  1
  H  H540  1  0.74860000  0.91370000  0.19310000  1
  H  H541  1  0.20540000  0.94910000  0.04530000  1
  H  H542  1  0.42630000  0.16840000  0.25750000  1
  H  H543  1  0.65510000  0.79820000  0.08530000  1
  H  H544  1  0.18890000  0.73940000  0.20910000  1
  H  H545  1  0.80540000  0.60290000  0.57330000  1
  H  H546  1  0.13330000  0.92020000  0.90390000  1
  H  H547  1  0.32540000  0.26400000  0.94160000  1
  H  H548  1  0.28420000  0.85880000  0.25090000  1
  H  H549  1  0.67100000  0.71950000  0.14630000  1
  H  H550  1  0.44240000  0.38890000  0.01920000  1
  H  H551  1  0.20910000  0.18890000  0.73940000  1
  H  H552  1  0.79090000  0.81110000  0.26060000  1
  H  H553  1  0.55760000  0.61110000  0.98080000  1
  H  H554  1  0.32900000  0.28050000  0.85370000  1
  H  H555  1  0.71580000  0.14120000  0.74910000  1
  H  H556  1  0.67460000  0.73600000  0.05840000  1
  H  H557  1  0.86670000  0.07980000  0.09610000  1
  H  H558  1  0.19460000  0.39710000  0.42670000  1
  H  H559  1  0.81110000  0.26060000  0.79090000  1
  H  H560  1  0.34490000  0.20180000  0.91470000  1
  H  H561  1  0.57370000  0.83160000  0.74250000  1
  H  H562  1  0.79460000  0.05090000  0.95470000  1
  H  H563  1  0.25140000  0.08630000  0.80690000  1
  H  H564  1  0.30420000  0.15310000  0.84270000  1
  H  H565  1  0.66650000  0.02410000  0.69500000  1
  H  H566  1  0.46260000  0.31930000  0.98490000  1
  H  H567  1  0.71950000  0.14630000  0.67100000  1
  H  H568  1  0.70380000  0.17980000  0.60610000  1
  H  H569  1  0.60660000  0.08660000  0.49110000  1
  H  H570  1  0.74910000  0.71580000  0.14120000  1
  H  H571  1  0.94910000  0.04530000  0.20540000  1
  H  H572  1  0.14990000  0.65660000  0.99490000  1
  H  H573  1  0.81480000  0.26580000  0.71270000  1
  H  H574  1  0.16840000  0.25750000  0.42630000  1
  H  H575  1  0.66490000  0.12510000  0.55000000  1
  H  H576  1  0.28730000  0.18520000  0.73420000  1
  H  H577  1  0.39390000  0.29620000  0.82020000  1
  H  H578  1  0.61110000  0.98080000  0.55760000  1
  H  H579  1  0.02410000  0.69500000  0.66650000  1
  H  H580  1  0.45000000  0.33510000  0.87490000  1
  H  H581  1  0.11300000  0.60430000  0.92780000  1
  H  H582  1  0.69500000  0.66650000  0.02410000  1
  H  H583  1  0.82560000  0.59370000  0.35200000  1
  H  H584  1  0.05840000  0.67460000  0.73600000  1
  H  H585  1  0.50890000  0.39340000  0.91340000  1
  H  H586  1  0.64800000  0.17440000  0.40630000  1
  H  H587  1  0.08530000  0.65510000  0.79820000  1
  H  H588  1  0.62590000  0.77970000  0.75390000  1
  H  H589  1  0.84090000  0.99600000  0.96570000  1
  H  H590  1  0.19310000  0.74860000  0.91370000  1
  H  H591  1  0.92450000  0.07260000  0.05210000  1
  H  H592  1  0.24660000  0.38560000  0.37450000  1
  H  H593  1  0.57330000  0.80540000  0.60290000  1
  H  H594  1  0.73600000  0.05840000  0.67460000  1
  H  H595  1  0.13380000  0.92510000  0.60200000  1
  H  H596  1  0.48020000  0.26730000  0.94880000  1
  H  H597  1  0.90390000  0.13330000  0.92020000  1
  H  H598  1  0.71250000  0.20680000  0.46360000  1
  H  H599  1  0.67930000  0.50320000  0.09770000  1
  H  H600  1  0.79320000  0.53640000  0.28750000  1
  H  H601  1  0.49680000  0.90230000  0.32070000  1
  H  H602  1  0.15730000  0.69580000  0.84690000  1
  H  H603  1  0.71320000  0.48140000  0.16660000  1
  H  H604  1  0.35460000  0.15950000  0.76160000  1
  H  H605  1  0.98080000  0.55760000  0.61110000  1
  H  H606  1  0.84050000  0.23840000  0.64540000  1
  H  H607  1  0.92020000  0.90390000  0.13330000  1
  H  H608  1  0.68070000  0.01510000  0.53740000  1
  H  H609  1  0.07790000  0.47760000  0.86640000  1
  H  H610  1  0.01510000  0.53740000  0.68070000  1
  H  H611  1  0.00400000  0.03430000  0.15910000  1
  H  H612  1  0.00510000  0.85010000  0.34340000  1
  H  H613  1  0.14120000  0.74910000  0.71580000  1
  H  H614  1  0.22030000  0.24610000  0.37410000  1
  H  H615  1  0.13360000  0.92210000  0.52240000  1
  H  H616  1  0.12060000  0.55240000  0.86590000  1
  H  H617  1  0.60290000  0.57330000  0.80540000  1
  H  H618  1  0.92740000  0.94790000  0.07550000  1
  H  H619  1  0.34340000  0.00510000  0.85010000  1
  H  H620  1  0.90210000  0.96780000  0.00470000  1
  H  H621  1  0.39570000  0.07220000  0.88700000  1
  H  H622  1  0.64070000  0.70090000  0.74410000  1
  H  H623  1  0.84690000  0.15730000  0.69580000  1
  H  H624  1  0.78180000  0.20970000  0.50810000  1
  H  H625  1  0.05120000  0.51980000  0.73270000  1
  H  H626  1  0.61440000  0.62550000  0.75340000  1
  H  H627  1  0.25590000  0.35930000  0.29910000  1
  H  H628  1  0.39800000  0.86620000  0.07490000  1
  H  H629  1  0.79820000  0.08530000  0.65510000  1
  H  H630  1  0.99530000  0.09790000  0.03220000  1
  H  H631  1  0.83340000  0.28680000  0.51860000  1
  H  H632  1  0.07220000  0.88700000  0.39570000  1
  H  H633  1  0.79030000  0.49190000  0.21820000  1
  H  H634  1  0.02310000  0.75020000  0.41960000  1
  H  H635  1  0.44760000  0.13410000  0.87940000  1
  H  H636  1  0.62550000  0.75340000  0.61440000  1
  H  H637  1  0.07490000  0.39800000  0.86620000  1
  H  H638  1  0.91370000  0.19310000  0.74860000  1
  H  H639  1  0.94790000  0.07550000  0.92740000  1
  H  H640  1  0.73270000  0.05120000  0.51980000  1
  H  H641  1  0.24610000  0.37410000  0.22030000  1
  H  H642  1  0.14630000  0.67100000  0.71950000  1
  H  H643  1  0.03430000  0.15910000  0.00400000  1
  H  H644  1  0.54070000  0.26830000  0.90590000  1
  H  H645  1  0.73170000  0.09410000  0.45930000  1
  H  H646  1  0.51860000  0.83340000  0.28680000  1
  H  H647  1  0.26060000  0.79090000  0.81110000  1
  H  H648  1  0.39780000  0.09200000  0.78410000  1
  H  H649  1  0.25750000  0.42630000  0.16840000  1
  H  H650  1  0.21590000  0.60220000  0.90800000  1
  H  H651  1  0.91340000  0.50890000  0.39340000  1
  H  H652  1  0.90640000  0.62010000  0.26790000  1
  H  H653  1  0.58040000  0.97690000  0.24980000  1
  H  H654  1  0.37990000  0.73210000  0.09360000  1
  H  H655  1  0.04530000  0.20540000  0.94910000  1
  H  H656  1  0.13410000  0.87940000  0.44760000  1
  H  H657  1  0.24980000  0.58040000  0.97690000  1
  H  H658  1  0.82020000  0.39390000  0.29620000  1
  H  H659  1  0.87490000  0.45000000  0.33510000  1
  H  H660  1  0.03220000  0.99530000  0.09790000  1
  H  H661  1  0.49190000  0.21820000  0.79030000  1
  H  H662  1  0.29910000  0.25590000  0.35930000  1
  H  H663  1  0.90230000  0.32070000  0.49680000  1
  H  H664  1  0.52240000  0.13360000  0.92210000  1
  H  H665  1  0.40630000  0.64800000  0.17440000  1
  H  H666  1  0.73210000  0.09360000  0.37990000  1
  H  H667  1  0.23840000  0.64540000  0.84050000  1
  H  H668  1  0.53640000  0.28750000  0.79320000  1
  H  H669  1  0.73420000  0.28730000  0.18520000  1
  H  H670  1  0.09410000  0.45930000  0.73170000  1
  H  H671  1  0.90800000  0.21590000  0.60220000  1
  In  In672  1  0.08137667  0.23956667  0.80189667  1
  In  In673  1  0.34956667  0.49780000  0.06610333  1
  In  In674  1  0.80189667  0.08137667  0.23956667  1
  In  In675  1  0.06610333  0.34956667  0.49780000  1
  In  In676  1  0.76043333  0.19810333  0.91862333  1
  In  In677  1  0.50220000  0.93389667  0.65043333  1
  In  In678  1  0.49780000  0.06610333  0.34956667  1
  In  In679  1  0.23956667  0.80189667  0.08137667  1
  In  In680  1  0.93389667  0.65043333  0.50220000  1
  In  In681  1  0.19810333  0.91862333  0.76043333  1
  In  In682  1  0.65043333  0.50220000  0.93389667  1
  In  In683  1  0.91862333  0.76043333  0.19810333  1
  O  O684  1  0.99840000  0.77634000  0.21959000  1
  O  O685  1  0.92671000  0.68757000  0.16474000  1
  O  O686  1  0.30202000  0.47227000  0.11394000  1
  O  O687  1  0.06768000  0.22932000  0.87433000  1
  O  O688  1  0.29299000  0.52209000  0.02424000  1
  O  O689  1  0.36625000  0.57242000  0.11522000  1
  O  O690  1  0.08971000  0.30258000  0.76296000  1
  O  O691  1  0.99131000  0.35083000  0.51047000  1
  O  O692  1  0.76296000  0.08971000  0.30258000  1
  O  O693  1  0.37707000  0.47336000  0.13356000  1
  O  O694  1  0.04367000  0.19756000  0.73099000  1
  O  O695  1  0.07777000  0.16881000  0.82506000  1
  O  O696  1  0.76657000  0.14013000  0.21861000  1
  O  O697  1  0.31831000  0.41811000  0.02618000  1
  O  O698  1  0.07879000  0.41879000  0.54395000  1
  O  O699  1  0.35083000  0.51047000  0.99131000  1
  O  O700  1  0.41879000  0.54395000  0.07879000  1
  O  O701  1  0.73099000  0.04367000  0.19756000  1
  O  O702  1  0.15971000  0.26130000  0.83660000  1
  O  O703  1  0.02424000  0.29299000  0.52209000  1
  O  O704  1  0.04070000  0.39250000  0.44550000  1
  O  O705  1  0.69742000  0.23704000  0.91029000  1
  O  O706  1  0.83660000  0.15971000  0.26130000  1
  O  O707  1  0.47791000  0.97576000  0.70701000  1
  O  O708  1  0.68757000  0.16474000  0.92671000  1
  O  O709  1  0.83526000  0.07329000  0.31243000  1
  O  O710  1  0.11522000  0.36625000  0.57242000  1
  O  O711  1  0.14013000  0.21861000  0.76657000  1
  O  O712  1  0.39250000  0.44550000  0.04070000  1
  O  O713  1  0.02618000  0.31831000  0.41811000  1
  O  O714  1  0.48953000  0.00869000  0.64917000  1
  O  O715  1  0.77634000  0.21959000  0.99840000  1
  O  O716  1  0.78041000  0.00160000  0.22366000  1
  O  O717  1  0.42758000  0.88478000  0.63375000  1
  O  O718  1  0.80244000  0.26901000  0.95633000  1
  O  O719  1  0.82506000  0.07777000  0.16881000  1
  O  O720  1  0.45605000  0.92121000  0.58121000  1
  O  O721  1  0.13356000  0.37707000  0.47336000  1
  O  O722  1  0.16881000  0.82506000  0.07777000  1
  O  O723  1  0.47336000  0.13356000  0.37707000  1
  O  O724  1  0.87433000  0.06768000  0.22932000  1
  O  O725  1  0.11394000  0.30202000  0.47227000  1
  O  O726  1  0.44550000  0.04070000  0.39250000  1
  O  O727  1  0.78139000  0.23343000  0.85987000  1
  O  O728  1  0.52773000  0.88606000  0.69798000  1
  O  O729  1  0.73870000  0.16340000  0.84029000  1
  O  O730  1  0.77068000  0.12567000  0.93232000  1
  O  O731  1  0.41811000  0.02618000  0.31831000  1
  O  O732  1  0.58189000  0.97382000  0.68169000  1
  O  O733  1  0.22932000  0.87433000  0.06768000  1
  O  O734  1  0.26130000  0.83660000  0.15971000  1
  O  O735  1  0.47227000  0.11394000  0.30202000  1
  O  O736  1  0.21861000  0.76657000  0.14013000  1
  O  O737  1  0.55450000  0.95930000  0.60750000  1
  O  O738  1  0.88606000  0.69798000  0.52773000  1
  O  O739  1  0.12567000  0.93232000  0.77068000  1
  O  O740  1  0.52664000  0.86644000  0.62293000  1
  O  O741  1  0.83119000  0.17494000  0.92223000  1
  O  O742  1  0.86644000  0.62293000  0.52664000  1
  O  O743  1  0.54395000  0.07879000  0.41879000  1
  O  O744  1  0.17494000  0.92223000  0.83119000  1
  O  O745  1  0.19756000  0.73099000  0.04367000  1
  O  O746  1  0.57242000  0.11522000  0.36625000  1
  O  O747  1  0.21959000  0.99840000  0.77634000  1
  O  O748  1  0.22366000  0.78041000  0.00160000  1
  O  O749  1  0.51047000  0.99131000  0.35083000  1
  O  O750  1  0.97382000  0.68169000  0.58189000  1
  O  O751  1  0.60750000  0.55450000  0.95930000  1
  O  O752  1  0.85987000  0.78139000  0.23343000  1
  O  O753  1  0.88478000  0.63375000  0.42758000  1
  O  O754  1  0.16474000  0.92671000  0.68757000  1
  O  O755  1  0.31243000  0.83526000  0.07329000  1
  O  O756  1  0.52209000  0.02424000  0.29299000  1
  O  O757  1  0.16340000  0.84029000  0.73870000  1
  O  O758  1  0.30258000  0.76296000  0.08971000  1
  O  O759  1  0.95930000  0.60750000  0.55450000  1
  O  O760  1  0.97576000  0.70701000  0.47791000  1
  O  O761  1  0.84029000  0.73870000  0.16340000  1
  O  O762  1  0.26901000  0.95633000  0.80244000  1
  O  O763  1  0.58121000  0.45605000  0.92121000  1
  O  O764  1  0.64917000  0.48953000  0.00869000  1
  O  O765  1  0.92121000  0.58121000  0.45605000  1
  O  O766  1  0.68169000  0.58189000  0.97382000  1
  O  O767  1  0.23343000  0.85987000  0.78139000  1
  O  O768  1  0.92223000  0.83119000  0.17494000  1
  O  O769  1  0.95633000  0.80244000  0.26901000  1
  O  O770  1  0.62293000  0.52664000  0.86644000  1
  O  O771  1  0.23704000  0.91029000  0.69742000  1
  O  O772  1  0.00869000  0.64917000  0.48953000  1
  O  O773  1  0.91029000  0.69742000  0.23704000  1
  O  O774  1  0.63375000  0.42758000  0.88478000  1
  O  O775  1  0.70701000  0.47791000  0.97576000  1
  O  O776  1  0.93232000  0.77068000  0.12567000  1
  O  O777  1  0.69798000  0.52773000  0.88606000  1
  O  O778  1  0.07329000  0.31243000  0.83526000  1
  O  O779  1  0.00160000  0.22366000  0.78041000  1
