# generated using pymatgen
data_GdH11C27N7O19
_symmetry_space_group_name_H-M   'P 1'
_cell_length_a   14.63600000
_cell_length_b   19.26620000
_cell_length_c   19.26620000
_cell_angle_alpha   101.24100000
_cell_angle_beta   92.70000000
_cell_angle_gamma   92.70000000
_symmetry_Int_Tables_number   1
_chemical_formula_structural   GdH11C27N7O19
_chemical_formula_sum   'Gd4 H44 C108 N28 O76'
_cell_volume   5313.75668348
_cell_formula_units_Z   4
loop_
 _symmetry_equiv_pos_site_id
 _symmetry_equiv_pos_as_xyz
  1  'x, y, z'
loop_
 _atom_site_type_symbol
 _atom_site_label
 _atom_site_symmetry_multiplicity
 _atom_site_fract_x
 _atom_site_fract_y
 _atom_site_fract_z
 _atom_site_occupancy
  Gd  Gd0  1  0.13125000  0.01753000  0.54473000  1
  Gd  Gd1  1  0.36875000  0.45527000  0.98247000  1
  Gd  Gd2  1  0.63125000  0.54473000  0.01753000  1
  Gd  Gd3  1  0.86875000  0.98247000  0.45527000  1
  H  H4  1  0.01610000  0.84160000  0.25800000  1
  H  H5  1  0.02760000  0.56020000  0.98540000  1
  H  H6  1  0.05020000  0.74410000  0.97690000  1
  H  H7  1  0.05260000  0.86790000  0.69070000  1
  H  H8  1  0.14330000  0.48940000  0.99600000  1
  H  H9  1  0.17270000  0.41790000  0.17410000  1
  H  H10  1  0.17360000  0.01190000  0.36130000  1
  H  H11  1  0.18570000  0.85970000  0.43050000  1
  H  H12  1  0.19650000  0.16540000  0.40660000  1
  H  H13  1  0.21560000  0.71630000  0.97770000  1
  H  H14  1  0.24200000  0.94170000  0.76210000  1
  H  H15  1  0.25800000  0.23790000  0.05830000  1
  H  H16  1  0.28440000  0.02230000  0.28370000  1
  H  H17  1  0.30350000  0.59340000  0.83460000  1
  H  H18  1  0.31430000  0.56950000  0.14030000  1
  H  H19  1  0.32640000  0.63870000  0.98810000  1
  H  H20  1  0.32730000  0.82590000  0.58210000  1
  H  H21  1  0.35670000  0.00400000  0.51060000  1
  H  H22  1  0.44740000  0.30930000  0.13210000  1
  H  H23  1  0.44980000  0.02310000  0.25590000  1
  H  H24  1  0.47240000  0.01460000  0.43980000  1
  H  H25  1  0.48390000  0.74200000  0.15840000  1
  H  H26  1  0.51610000  0.25800000  0.84160000  1
  H  H27  1  0.52760000  0.98540000  0.56020000  1
  H  H28  1  0.55020000  0.97690000  0.74410000  1
  H  H29  1  0.55260000  0.69070000  0.86790000  1
  H  H30  1  0.64330000  0.99600000  0.48940000  1
  H  H31  1  0.67270000  0.17410000  0.41790000  1
  H  H32  1  0.67360000  0.36130000  0.01190000  1
  H  H33  1  0.68570000  0.43050000  0.85970000  1
  H  H34  1  0.69650000  0.40660000  0.16540000  1
  H  H35  1  0.71560000  0.97770000  0.71630000  1
  H  H36  1  0.74200000  0.76210000  0.94170000  1
  H  H37  1  0.75800000  0.05830000  0.23790000  1
  H  H38  1  0.78440000  0.28370000  0.02230000  1
  H  H39  1  0.80350000  0.83460000  0.59340000  1
  H  H40  1  0.81430000  0.14030000  0.56950000  1
  H  H41  1  0.82640000  0.98810000  0.63870000  1
  H  H42  1  0.82730000  0.58210000  0.82590000  1
  H  H43  1  0.85670000  0.51060000  0.00400000  1
  H  H44  1  0.94740000  0.13210000  0.30930000  1
  H  H45  1  0.94980000  0.25590000  0.02310000  1
  H  H46  1  0.97240000  0.43980000  0.01460000  1
  H  H47  1  0.98390000  0.15840000  0.74200000  1
  C  C48  1  0.00770000  0.15050000  0.31250000  1
  C  C49  1  0.02370000  0.90520000  0.39140000  1
  C  C50  1  0.03440000  0.69720000  0.97880000  1
  C  C51  1  0.03900000  0.09990000  0.42150000  1
  C  C52  1  0.03910000  0.18730000  0.26090000  1
  C  C53  1  0.06710000  0.14180000  0.36820000  1
  C  C54  1  0.07130000  0.83210000  0.27910000  1
  C  C55  1  0.08810000  0.57760000  0.98580000  1
  C  C56  1  0.09190000  0.85820000  0.35060000  1
  C  C57  1  0.10900000  0.64770000  0.98030000  1
  C  C58  1  0.12660000  0.21680000  0.26300000  1
  C  C59  1  0.13470000  0.79110000  0.23870000  1
  C  C60  1  0.14940000  0.33050000  0.21430000  1
  C  C61  1  0.15530000  0.17010000  0.36990000  1
  C  C62  1  0.15820000  0.25610000  0.20630000  1
  C  C63  1  0.15830000  0.53580000  0.99180000  1
  C  C64  1  0.17160000  0.84280000  0.38240000  1
  C  C65  1  0.18070000  0.36950000  0.16730000  1
  C  C66  1  0.18450000  0.20560000  0.31800000  1
  C  C67  1  0.19910000  0.67000000  0.98120000  1
  C  C68  1  0.19980000  0.22540000  0.14840000  1
  C  C69  1  0.21640000  0.77500000  0.27000000  1
  C  C70  1  0.22440000  0.33500000  0.10940000  1
  C  C71  1  0.23160000  0.80050000  0.34030000  1
  C  C72  1  0.23180000  0.26180000  0.09860000  1
  C  C73  1  0.23370000  0.94060000  0.62260000  1
  C  C74  1  0.23460000  0.01270000  0.37750000  1
  C  C75  1  0.26540000  0.62250000  0.98730000  1
  C  C76  1  0.26630000  0.37740000  0.05940000  1
  C  C77  1  0.26820000  0.90140000  0.73820000  1
  C  C78  1  0.26840000  0.65970000  0.19950000  1
  C  C79  1  0.27560000  0.89060000  0.66500000  1
  C  C80  1  0.28360000  0.73000000  0.22500000  1
  C  C81  1  0.30020000  0.85160000  0.77460000  1
  C  C82  1  0.30090000  0.01880000  0.33000000  1
  C  C83  1  0.31550000  0.68200000  0.79440000  1
  C  C84  1  0.31930000  0.83270000  0.63050000  1
  C  C85  1  0.32840000  0.61760000  0.15720000  1
  C  C86  1  0.34170000  0.00820000  0.46420000  1
  C  C87  1  0.34180000  0.79370000  0.74390000  1
  C  C88  1  0.34470000  0.63010000  0.82990000  1
  C  C89  1  0.35060000  0.78570000  0.66950000  1
  C  C90  1  0.36530000  0.76130000  0.20890000  1
  C  C91  1  0.37340000  0.73700000  0.78320000  1
  C  C92  1  0.39100000  0.01970000  0.35230000  1
  C  C93  1  0.40810000  0.64940000  0.14180000  1
  C  C94  1  0.41190000  0.01420000  0.42240000  1
  C  C95  1  0.42870000  0.72090000  0.16790000  1
  C  C96  1  0.43290000  0.63180000  0.85820000  1
  C  C97  1  0.46090000  0.73910000  0.81270000  1
  C  C98  1  0.46100000  0.57850000  0.90010000  1
  C  C99  1  0.46560000  0.02120000  0.30280000  1
  C  C100  1  0.47630000  0.60860000  0.09480000  1
  C  C101  1  0.49230000  0.68750000  0.84950000  1
  C  C102  1  0.50770000  0.31250000  0.15050000  1
  C  C103  1  0.52370000  0.39140000  0.90520000  1
  C  C104  1  0.53440000  0.97880000  0.69720000  1
  C  C105  1  0.53900000  0.42150000  0.09990000  1
  C  C106  1  0.53910000  0.26090000  0.18730000  1
  C  C107  1  0.56710000  0.36820000  0.14180000  1
  C  C108  1  0.57130000  0.27910000  0.83210000  1
  C  C109  1  0.58810000  0.98580000  0.57760000  1
  C  C110  1  0.59190000  0.35060000  0.85820000  1
  C  C111  1  0.60900000  0.98030000  0.64770000  1
  C  C112  1  0.62660000  0.26300000  0.21680000  1
  C  C113  1  0.63470000  0.23870000  0.79110000  1
  C  C114  1  0.64940000  0.21430000  0.33050000  1
  C  C115  1  0.65530000  0.36990000  0.17010000  1
  C  C116  1  0.65820000  0.20630000  0.25610000  1
  C  C117  1  0.65830000  0.99180000  0.53580000  1
  C  C118  1  0.67160000  0.38240000  0.84280000  1
  C  C119  1  0.68070000  0.16730000  0.36950000  1
  C  C120  1  0.68450000  0.31800000  0.20560000  1
  C  C121  1  0.69910000  0.98120000  0.67000000  1
  C  C122  1  0.69980000  0.14840000  0.22540000  1
  C  C123  1  0.71640000  0.27000000  0.77500000  1
  C  C124  1  0.72440000  0.10940000  0.33500000  1
  C  C125  1  0.73160000  0.34030000  0.80050000  1
  C  C126  1  0.73180000  0.09860000  0.26180000  1
  C  C127  1  0.73370000  0.62260000  0.94060000  1
  C  C128  1  0.73460000  0.37750000  0.01270000  1
  C  C129  1  0.76540000  0.98730000  0.62250000  1
  C  C130  1  0.76630000  0.05940000  0.37740000  1
  C  C131  1  0.76820000  0.73820000  0.90140000  1
  C  C132  1  0.76840000  0.19950000  0.65970000  1
  C  C133  1  0.77560000  0.66500000  0.89060000  1
  C  C134  1  0.78360000  0.22500000  0.73000000  1
  C  C135  1  0.80020000  0.77460000  0.85160000  1
  C  C136  1  0.80090000  0.33000000  0.01880000  1
  C  C137  1  0.81550000  0.79440000  0.68200000  1
  C  C138  1  0.81930000  0.63050000  0.83270000  1
  C  C139  1  0.82840000  0.15720000  0.61760000  1
  C  C140  1  0.84170000  0.46420000  0.00820000  1
  C  C141  1  0.84180000  0.74390000  0.79370000  1
  C  C142  1  0.84470000  0.82990000  0.63010000  1
  C  C143  1  0.85060000  0.66950000  0.78570000  1
  C  C144  1  0.86530000  0.20890000  0.76130000  1
  C  C145  1  0.87340000  0.78320000  0.73700000  1
  C  C146  1  0.89100000  0.35230000  0.01970000  1
  C  C147  1  0.90810000  0.14180000  0.64940000  1
  C  C148  1  0.91190000  0.42240000  0.01420000  1
  C  C149  1  0.92870000  0.16790000  0.72090000  1
  C  C150  1  0.93290000  0.85820000  0.63180000  1
  C  C151  1  0.96090000  0.81270000  0.73910000  1
  C  C152  1  0.96100000  0.90010000  0.57850000  1
  C  C153  1  0.96560000  0.30280000  0.02120000  1
  C  C154  1  0.97630000  0.09480000  0.60860000  1
  C  C155  1  0.99230000  0.84950000  0.68750000  1
  N  N156  1  0.03160000  0.80520000  0.79520000  1
  N  N157  1  0.10030000  0.36840000  0.27280000  1
  N  N158  1  0.11190000  0.77230000  0.16310000  1
  N  N159  1  0.18430000  0.62030000  0.21590000  1
  N  N160  1  0.21440000  0.14780000  0.13280000  1
  N  N161  1  0.21780000  0.67570000  0.77010000  1
  N  N162  1  0.24840000  0.55500000  0.99220000  1
  N  N163  1  0.25160000  0.00780000  0.44500000  1
  N  N164  1  0.28220000  0.22990000  0.32430000  1
  N  N165  1  0.28560000  0.86720000  0.85220000  1
  N  N166  1  0.31570000  0.78410000  0.37970000  1
  N  N167  1  0.38810000  0.83690000  0.22770000  1
  N  N168  1  0.39970000  0.72720000  0.63160000  1
  N  N169  1  0.46840000  0.20480000  0.19480000  1
  N  N170  1  0.53160000  0.79520000  0.80520000  1
  N  N171  1  0.60030000  0.27280000  0.36840000  1
  N  N172  1  0.61190000  0.16310000  0.77230000  1
  N  N173  1  0.68430000  0.21590000  0.62030000  1
  N  N174  1  0.71440000  0.13280000  0.14780000  1
  N  N175  1  0.71780000  0.77010000  0.67570000  1
  N  N176  1  0.74840000  0.99220000  0.55500000  1
  N  N177  1  0.75160000  0.44500000  0.00780000  1
  N  N178  1  0.78220000  0.32430000  0.22990000  1
  N  N179  1  0.78560000  0.85220000  0.86720000  1
  N  N180  1  0.81570000  0.37970000  0.78410000  1
  N  N181  1  0.88810000  0.22770000  0.83690000  1
  N  N182  1  0.89970000  0.63160000  0.72720000  1
  N  N183  1  0.96840000  0.19480000  0.20480000  1
  O  O184  1  0.02300000  0.75470000  0.82270000  1
  O  O185  1  0.03810000  0.93210000  0.59070000  1
  O  O186  1  0.03960000  0.76540000  0.13960000  1
  O  O187  1  0.04620000  0.32050000  0.02010000  1
  O  O188  1  0.05330000  0.94650000  0.44730000  1
  O  O189  1  0.05620000  0.09970000  0.63270000  1
  O  O190  1  0.06330000  0.42250000  0.26450000  1
  O  O191  1  0.09370000  0.85040000  0.80940000  1
  O  O192  1  0.09480000  0.09920000  0.47180000  1
  O  O193  1  0.09900000  0.34670000  0.32850000  1
  O  O194  1  0.15020000  0.64200000  0.27120000  1
  O  O195  1  0.15190000  0.57290000  0.17090000  1
  O  O196  1  0.16690000  0.63420000  0.79440000  1
  O  O197  1  0.17710000  0.77380000  0.12420000  1
  O  O198  1  0.19200000  0.71280000  0.73020000  1
  O  O199  1  0.20430000  0.99640000  0.65560000  1
  O  O200  1  0.20990000  0.11650000  0.18310000  1
  O  O201  1  0.23240000  0.92500000  0.55620000  1
  O  O202  1  0.23360000  0.12050000  0.07310000  1
  O  O203  1  0.26640000  0.92690000  0.87950000  1
  O  O204  1  0.26760000  0.44380000  0.07500000  1
  O  O205  1  0.29010000  0.81690000  0.88350000  1
  O  O206  1  0.29570000  0.34440000  0.00360000  1
  O  O207  1  0.30800000  0.26980000  0.28720000  1
  O  O208  1  0.32290000  0.87580000  0.22620000  1
  O  O209  1  0.33310000  0.20560000  0.36580000  1
  O  O210  1  0.34810000  0.82910000  0.42710000  1
  O  O211  1  0.34980000  0.72880000  0.35800000  1
  O  O212  1  0.40100000  0.67150000  0.65330000  1
  O  O213  1  0.40520000  0.52820000  0.90080000  1
  O  O214  1  0.40630000  0.19060000  0.14960000  1
  O  O215  1  0.43670000  0.73550000  0.57750000  1
  O  O216  1  0.44380000  0.36730000  0.90030000  1
  O  O217  1  0.44670000  0.55270000  0.05350000  1
  O  O218  1  0.45380000  0.97990000  0.67950000  1
  O  O219  1  0.46040000  0.86040000  0.23460000  1
  O  O220  1  0.46190000  0.40930000  0.06790000  1
  O  O221  1  0.47700000  0.17730000  0.24530000  1
  O  O222  1  0.52300000  0.82270000  0.75470000  1
  O  O223  1  0.53810000  0.59070000  0.93210000  1
  O  O224  1  0.53960000  0.13960000  0.76540000  1
  O  O225  1  0.54620000  0.02010000  0.32050000  1
  O  O226  1  0.55330000  0.44730000  0.94650000  1
  O  O227  1  0.55620000  0.63270000  0.09970000  1
  O  O228  1  0.56330000  0.26450000  0.42250000  1
  O  O229  1  0.59370000  0.80940000  0.85040000  1
  O  O230  1  0.59480000  0.47180000  0.09920000  1
  O  O231  1  0.59900000  0.32850000  0.34670000  1
  O  O232  1  0.65020000  0.27120000  0.64200000  1
  O  O233  1  0.65190000  0.17090000  0.57290000  1
  O  O234  1  0.66690000  0.79440000  0.63420000  1
  O  O235  1  0.67710000  0.12420000  0.77380000  1
  O  O236  1  0.69200000  0.73020000  0.71280000  1
  O  O237  1  0.70430000  0.65560000  0.99640000  1
  O  O238  1  0.70990000  0.18310000  0.11650000  1
  O  O239  1  0.73240000  0.55620000  0.92500000  1
  O  O240  1  0.73360000  0.07310000  0.12050000  1
  O  O241  1  0.76640000  0.87950000  0.92690000  1
  O  O242  1  0.76760000  0.07500000  0.44380000  1
  O  O243  1  0.79010000  0.88350000  0.81690000  1
  O  O244  1  0.79570000  0.00360000  0.34440000  1
  O  O245  1  0.80800000  0.28720000  0.26980000  1
  O  O246  1  0.82290000  0.22620000  0.87580000  1
  O  O247  1  0.83310000  0.36580000  0.20560000  1
  O  O248  1  0.84810000  0.42710000  0.82910000  1
  O  O249  1  0.84980000  0.35800000  0.72880000  1
  O  O250  1  0.90100000  0.65330000  0.67150000  1
  O  O251  1  0.90520000  0.90080000  0.52820000  1
  O  O252  1  0.90630000  0.14960000  0.19060000  1
  O  O253  1  0.93670000  0.57750000  0.73550000  1
  O  O254  1  0.94380000  0.90030000  0.36730000  1
  O  O255  1  0.94670000  0.05350000  0.55270000  1
  O  O256  1  0.95380000  0.67950000  0.97990000  1
  O  O257  1  0.96040000  0.23460000  0.86040000  1
  O  O258  1  0.96190000  0.06790000  0.40930000  1
  O  O259  1  0.97700000  0.24530000  0.17730000  1
