# generated using pymatgen
data_Cu2H21C25N15O
_symmetry_space_group_name_H-M   'P 1'
_cell_length_a   13.34270000
_cell_length_b   13.40470000
_cell_length_c   13.56200000
_cell_angle_alpha   102.33900000
_cell_angle_beta   104.36900000
_cell_angle_gamma   90.47700000
_symmetry_Int_Tables_number   1
_chemical_formula_structural   Cu2H21C25N15O
_chemical_formula_sum   'Cu4 H42 C50 N30 O2'
_cell_volume   2290.64216632
_cell_formula_units_Z   2
loop_
 _symmetry_equiv_pos_site_id
 _symmetry_equiv_pos_as_xyz
  1  'x, y, z'
loop_
 _atom_site_type_symbol
 _atom_site_label
 _atom_site_symmetry_multiplicity
 _atom_site_fract_x
 _atom_site_fract_y
 _atom_site_fract_z
 _atom_site_occupancy
  Cu  Cu0  1  0.00000000  0.50000000  0.50000000  1
  Cu  Cu1  1  0.25871000  0.42718000  0.47608000  1
  Cu  Cu2  1  0.50000000  0.50000000  0.50000000  1
  Cu  Cu3  1  0.74129000  0.57282000  0.52392000  1
  H  H4  1  0.05790000  0.44870000  0.72850000  1
  H  H5  1  0.06770000  0.72070000  0.48960000  1
  H  H6  1  0.06780000  0.86440000  0.40380000  1
  H  H7  1  0.11840000  0.55760000  0.92150000  1
  H  H8  1  0.12320000  0.03380000  0.41350000  1
  H  H9  1  0.16890000  0.54810000  0.09770000  1
  H  H10  1  0.19910000  0.42340000  0.23080000  1
  H  H11  1  0.21820000  0.20270000  0.51140000  1
  H  H12  1  0.23540000  0.18440000  0.28820000  1
  H  H13  1  0.26130000  0.10220000  0.10800000  1
  H  H14  1  0.27720000  0.96370000  0.97850000  1
  H  H15  1  0.29290000  0.82220000  0.85940000  1
  H  H16  1  0.29350000  0.41810000  0.72770000  1
  H  H17  1  0.33730000  0.53590000  0.39350000  1
  H  H18  1  0.33790000  0.54360000  0.91330000  1
  H  H19  1  0.38530000  0.57330000  0.09520000  1
  H  H20  1  0.41990000  0.48350000  0.24530000  1
  H  H21  1  0.42560000  0.20190000  0.97670000  1
  H  H22  1  0.45010000  0.08910000  0.84210000  1
  H  H23  1  0.46200000  0.76220000  0.65100000  1
  H  H24  1  0.46830000  0.95430000  0.70960000  1
  H  H25  1  0.53170000  0.04570000  0.29040000  1
  H  H26  1  0.53800000  0.23780000  0.34900000  1
  H  H27  1  0.54990000  0.91090000  0.15790000  1
  H  H28  1  0.57440000  0.79810000  0.02330000  1
  H  H29  1  0.58010000  0.51650000  0.75470000  1
  H  H30  1  0.61470000  0.42670000  0.90480000  1
  H  H31  1  0.66210000  0.45640000  0.08670000  1
  H  H32  1  0.66270000  0.46410000  0.60650000  1
  H  H33  1  0.70650000  0.58190000  0.27230000  1
  H  H34  1  0.70710000  0.17780000  0.14060000  1
  H  H35  1  0.72280000  0.03630000  0.02150000  1
  H  H36  1  0.73870000  0.89780000  0.89200000  1
  H  H37  1  0.76460000  0.81560000  0.71180000  1
  H  H38  1  0.78180000  0.79730000  0.48860000  1
  H  H39  1  0.80090000  0.57660000  0.76920000  1
  H  H40  1  0.83110000  0.45190000  0.90230000  1
  H  H41  1  0.87680000  0.96620000  0.58650000  1
  H  H42  1  0.88160000  0.44240000  0.07850000  1
  H  H43  1  0.93220000  0.13560000  0.59620000  1
  H  H44  1  0.93230000  0.27930000  0.51040000  1
  H  H45  1  0.94210000  0.55130000  0.27150000  1
  C  C46  1  0.00270000  0.28220000  0.51050000  1
  C  C47  1  0.00580000  0.52050000  0.28380000  1
  C  C48  1  0.02890000  0.49480000  0.10200000  1
  C  C49  1  0.03230000  0.09860000  0.50650000  1
  C  C50  1  0.04050000  0.91940000  0.44240000  1
  C  C51  1  0.07050000  0.53420000  0.95330000  1
  C  C52  1  0.07370000  0.01990000  0.44830000  1
  C  C53  1  0.10040000  0.52870000  0.05790000  1
  C  C54  1  0.14650000  0.45090000  0.26130000  1
  C  C55  1  0.15910000  0.24040000  0.51100000  1
  C  C56  1  0.30340000  0.21370000  0.31740000  1
  C  C57  1  0.31950000  0.06290000  0.11850000  1
  C  C58  1  0.32940000  0.98110000  0.04130000  1
  C  C59  1  0.35390000  0.43820000  0.71120000  1
  C  C60  1  0.36070000  0.80190000  0.88050000  1
  C  C61  1  0.39550000  0.08680000  0.21170000  1
  C  C62  1  0.40310000  0.52630000  0.94860000  1
  C  C63  1  0.41580000  0.92480000  0.05570000  1
  C  C64  1  0.43110000  0.54370000  0.05640000  1
  C  C65  1  0.46830000  0.24350000  0.35090000  1
  C  C66  1  0.47240000  0.48320000  0.89340000  1
  C  C67  1  0.48050000  0.02990000  0.22670000  1
  C  C68  1  0.48660000  0.21100000  0.03100000  1
  C  C69  1  0.48950000  0.50830000  0.27370000  1
  C  C70  1  0.49100000  0.94920000  0.14800000  1
  C  C71  1  0.50900000  0.05080000  0.85200000  1
  C  C72  1  0.51050000  0.49170000  0.72630000  1
  C  C73  1  0.51340000  0.78900000  0.96900000  1
  C  C74  1  0.51950000  0.97010000  0.77330000  1
  C  C75  1  0.52760000  0.51680000  0.10660000  1
  C  C76  1  0.53170000  0.75650000  0.64910000  1
  C  C77  1  0.56890000  0.45630000  0.94360000  1
  C  C78  1  0.58420000  0.07520000  0.94430000  1
  C  C79  1  0.59690000  0.47370000  0.05140000  1
  C  C80  1  0.60450000  0.91320000  0.78830000  1
  C  C81  1  0.63930000  0.19810000  0.11950000  1
  C  C82  1  0.64610000  0.56180000  0.28880000  1
  C  C83  1  0.67060000  0.01890000  0.95870000  1
  C  C84  1  0.68050000  0.93710000  0.88150000  1
  C  C85  1  0.69660000  0.78630000  0.68260000  1
  C  C86  1  0.84090000  0.75960000  0.48900000  1
  C  C87  1  0.85350000  0.54910000  0.73870000  1
  C  C88  1  0.89960000  0.47130000  0.94210000  1
  C  C89  1  0.92630000  0.98010000  0.55170000  1
  C  C90  1  0.92950000  0.46580000  0.04670000  1
  C  C91  1  0.95950000  0.08060000  0.55760000  1
  C  C92  1  0.96770000  0.90140000  0.49350000  1
  C  C93  1  0.97110000  0.50520000  0.89800000  1
  C  C94  1  0.99420000  0.47950000  0.71620000  1
  C  C95  1  0.99730000  0.71780000  0.48950000  1
  N  N96  1  0.05520000  0.50120000  0.37310000  1
  N  N97  1  0.05620000  0.36380000  0.50960000  1
  N  N98  1  0.06010000  0.48950000  0.21120000  1
  N  N99  1  0.06450000  0.20200000  0.51180000  1
  N  N100  1  0.14570000  0.45790000  0.35830000  1
  N  N101  1  0.15540000  0.33680000  0.50970000  1
  N  N102  1  0.32950000  0.29750000  0.39060000  1
  N  N103  1  0.36110000  0.44040000  0.61760000  1
  N  N104  1  0.38870000  0.17560000  0.28980000  1
  N  N105  1  0.40170000  0.73110000  0.82370000  1
  N  N106  1  0.42800000  0.84260000  0.97390000  1
  N  N107  1  0.43560000  0.31640000  0.41160000  1
  N  N108  1  0.44630000  0.46920000  0.78140000  1
  N  N109  1  0.46210000  0.47420000  0.62670000  1
  N  N110  1  0.49940000  0.27580000  0.11900000  1
  N  N111  1  0.50060000  0.72420000  0.88100000  1
  N  N112  1  0.53790000  0.52580000  0.37330000  1
  N  N113  1  0.55370000  0.53080000  0.21860000  1
  N  N114  1  0.56440000  0.68360000  0.58840000  1
  N  N115  1  0.57200000  0.15740000  0.02610000  1
  N  N116  1  0.59830000  0.26890000  0.17630000  1
  N  N117  1  0.61130000  0.82440000  0.71020000  1
  N  N118  1  0.63890000  0.55960000  0.38240000  1
  N  N119  1  0.67050000  0.70250000  0.60940000  1
  N  N120  1  0.84460000  0.66320000  0.49030000  1
  N  N121  1  0.85430000  0.54210000  0.64170000  1
  N  N122  1  0.93550000  0.79800000  0.48820000  1
  N  N123  1  0.93990000  0.51050000  0.78880000  1
  N  N124  1  0.94380000  0.63620000  0.49040000  1
  N  N125  1  0.94480000  0.49880000  0.62690000  1
  O  O126  1  0.35460000  0.52250000  0.45440000  1
  O  O127  1  0.64540000  0.47750000  0.54560000  1
