# generated using pymatgen
data_ErH6(C4O3)3
_symmetry_space_group_name_H-M   'P 1'
_cell_length_a   10.55070000
_cell_length_b   10.92650000
_cell_length_c   12.89780000
_cell_angle_alpha   103.18400000
_cell_angle_beta   111.14700000
_cell_angle_gamma   96.56600000
_symmetry_Int_Tables_number   1
_chemical_formula_structural   ErH6(C4O3)3
_chemical_formula_sum   'Er2 H12 C24 O18'
_cell_volume   1318.17197917
_cell_formula_units_Z   2
loop_
 _symmetry_equiv_pos_site_id
 _symmetry_equiv_pos_as_xyz
  1  'x, y, z'
loop_
 _atom_site_type_symbol
 _atom_site_label
 _atom_site_symmetry_multiplicity
 _atom_site_fract_x
 _atom_site_fract_y
 _atom_site_fract_z
 _atom_site_occupancy
  Er  Er0  1  0.10646000  0.54653000  0.68267000  1
  Er  Er1  1  0.89354000  0.45347000  0.31733000  1
  H  H2  1  0.00090000  0.85200000  0.34130000  1
  H  H3  1  0.05320000  0.87000000  0.70160000  1
  H  H4  1  0.18400000  0.91160000  0.95060000  1
  H  H5  1  0.23660000  0.40400000  0.26280000  1
  H  H6  1  0.42290000  0.55520000  0.64740000  1
  H  H7  1  0.44020000  0.16080000  0.11270000  1
  H  H8  1  0.55980000  0.83920000  0.88730000  1
  H  H9  1  0.57710000  0.44480000  0.35260000  1
  H  H10  1  0.76340000  0.59600000  0.73720000  1
  H  H11  1  0.81600000  0.08840000  0.04940000  1
  H  H12  1  0.94680000  0.13000000  0.29840000  1
  H  H13  1  0.99910000  0.14800000  0.65870000  1
  C  C14  1  0.00030000  0.91170000  0.40530000  1
  C  C15  1  0.02090000  0.87710000  0.50640000  1
  C  C16  1  0.02100000  0.96780000  0.60310000  1
  C  C17  1  0.03680000  0.74330000  0.50760000  1
  C  C18  1  0.20680000  0.47220000  0.44840000  1
  C  C19  1  0.29540000  0.76980000  0.84570000  1
  C  C20  1  0.35780000  0.48610000  0.47270000  1
  C  C21  1  0.36400000  0.98680000  0.99410000  1
  C  C22  1  0.39930000  0.88970000  0.92470000  1
  C  C23  1  0.40460000  0.45300000  0.38420000  1
  C  C24  1  0.45430000  0.53300000  0.58820000  1
  C  C25  1  0.46420000  0.09590000  0.06760000  1
  C  C26  1  0.53580000  0.90410000  0.93240000  1
  C  C27  1  0.54570000  0.46700000  0.41180000  1
  C  C28  1  0.59540000  0.54700000  0.61580000  1
  C  C29  1  0.60070000  0.11030000  0.07530000  1
  C  C30  1  0.63600000  0.01320000  0.00590000  1
  C  C31  1  0.64220000  0.51390000  0.52730000  1
  C  C32  1  0.70460000  0.23020000  0.15430000  1
  C  C33  1  0.79320000  0.52780000  0.55160000  1
  C  C34  1  0.96320000  0.25670000  0.49240000  1
  C  C35  1  0.97900000  0.03220000  0.39690000  1
  C  C36  1  0.97910000  0.12290000  0.49360000  1
  C  C37  1  0.99970000  0.08830000  0.59470000  1
  O  O38  1  0.01490000  0.66280000  0.41340000  1
  O  O39  1  0.04110000  0.94350000  0.70600000  1
  O  O40  1  0.07170000  0.71990000  0.60510000  1
  O  O41  1  0.12080000  0.43520000  0.34280000  1
  O  O42  1  0.16820000  0.49690000  0.53010000  1
  O  O43  1  0.17370000  0.75030000  0.84480000  1
  O  O44  1  0.23480000  0.98090000  0.99420000  1
  O  O45  1  0.31720000  0.40610000  0.26970000  1
  O  O46  1  0.32820000  0.68800000  0.78010000  1
  O  O47  1  0.67180000  0.31200000  0.21990000  1
  O  O48  1  0.68280000  0.59390000  0.73030000  1
  O  O49  1  0.76520000  0.01910000  0.00580000  1
  O  O50  1  0.82630000  0.24970000  0.15520000  1
  O  O51  1  0.83180000  0.50310000  0.46990000  1
  O  O52  1  0.87920000  0.56480000  0.65720000  1
  O  O53  1  0.92830000  0.28010000  0.39490000  1
  O  O54  1  0.95890000  0.05650000  0.29400000  1
  O  O55  1  0.98510000  0.33720000  0.58660000  1
