# generated using pymatgen
data_CuH4C6N5
_symmetry_space_group_name_H-M   'P 1'
_cell_length_a   14.29380000
_cell_length_b   14.85610000
_cell_length_c   23.10870000
_cell_angle_alpha   92.78670000
_cell_angle_beta   91.56790000
_cell_angle_gamma   109.88900000
_symmetry_Int_Tables_number   1
_chemical_formula_structural   CuH4C6N5
_chemical_formula_sum   'Cu16 H64 C96 N80'
_cell_volume   4603.94731777
_cell_formula_units_Z   16
loop_
 _symmetry_equiv_pos_site_id
 _symmetry_equiv_pos_as_xyz
  1  'x, y, z'
loop_
 _atom_site_type_symbol
 _atom_site_label
 _atom_site_symmetry_multiplicity
 _atom_site_fract_x
 _atom_site_fract_y
 _atom_site_fract_z
 _atom_site_occupancy
  Cu  Cu0  1  0.03760000  0.79620000  0.77019000  1
  Cu  Cu1  1  0.06780000  0.42790000  0.02455000  1
  Cu  Cu2  1  0.07870000  0.95640000  0.53804000  1
  Cu  Cu3  1  0.07880000  0.32120000  0.66095000  1
  Cu  Cu4  1  0.12820000  0.51890000  0.89475000  1
  Cu  Cu5  1  0.13650000  0.02790000  0.40075000  1
  Cu  Cu6  1  0.14560000  0.77030000  0.19256000  1
  Cu  Cu7  1  0.50000000  0.00000000  0.50000000  1
  Cu  Cu8  1  0.50000000  0.50000000  0.00000000  1
  Cu  Cu9  1  0.85440000  0.22970000  0.80744000  1
  Cu  Cu10  1  0.86350000  0.97210000  0.59925000  1
  Cu  Cu11  1  0.87180000  0.48110000  0.10525000  1
  Cu  Cu12  1  0.92120000  0.67880000  0.33905000  1
  Cu  Cu13  1  0.92130000  0.04360000  0.46196000  1
  Cu  Cu14  1  0.93220000  0.57210000  0.97545000  1
  Cu  Cu15  1  0.96240000  0.20380000  0.22981000  1
  H  H16  1  0.02530000  0.53850000  0.37680000  1
  H  H17  1  0.02860000  0.91560000  0.19970000  1
  H  H18  1  0.06820000  0.25090000  0.97400000  1
  H  H19  1  0.07300000  0.04230000  0.86970000  1
  H  H20  1  0.08270000  0.75180000  0.53400000  1
  H  H21  1  0.11660000  0.19270000  0.13410000  1
  H  H22  1  0.11670000  0.11930000  0.95580000  1
  H  H23  1  0.13100000  0.52610000  0.45620000  1
  H  H24  1  0.14440000  0.63100000  0.53430000  1
  H  H25  1  0.18430000  0.77450000  0.67220000  1
  H  H26  1  0.21200000  0.35810000  0.86270000  1
  H  H27  1  0.21250000  0.43210000  0.12090000  1
  H  H28  1  0.21920000  0.20460000  0.69000000  1
  H  H29  1  0.23320000  0.10520000  0.30420000  1
  H  H30  1  0.26690000  0.16510000  0.13670000  1
  H  H31  1  0.27010000  0.63460000  0.82810000  1
  H  H32  1  0.28360000  0.39780000  0.20990000  1
  H  H33  1  0.30550000  0.71310000  0.66300000  1
  H  H34  1  0.31310000  0.26180000  0.85210000  1
  H  H35  1  0.31340000  0.69410000  0.16290000  1
  H  H36  1  0.31730000  0.19200000  0.76540000  1
  H  H37  1  0.32520000  0.12140000  0.22170000  1
  H  H38  1  0.32930000  0.09900000  0.34820000  1
  H  H39  1  0.34410000  0.63110000  0.73830000  1
  H  H40  1  0.38580000  0.97700000  0.61740000  1
  H  H41  1  0.40000000  0.82570000  0.34680000  1
  H  H42  1  0.41640000  0.92670000  0.70720000  1
  H  H43  1  0.44120000  0.11130000  0.27560000  1
  H  H44  1  0.45190000  0.68240000  0.20530000  1
  H  H45  1  0.45810000  0.42170000  0.21340000  1
  H  H46  1  0.46060000  0.55540000  0.87110000  1
  H  H47  1  0.48960000  0.22560000  0.70720000  1
  H  H48  1  0.51040000  0.77440000  0.29280000  1
  H  H49  1  0.53940000  0.44460000  0.12890000  1
  H  H50  1  0.54190000  0.57830000  0.78660000  1
  H  H51  1  0.54810000  0.31760000  0.79470000  1
  H  H52  1  0.55880000  0.88870000  0.72440000  1
  H  H53  1  0.58360000  0.07330000  0.29280000  1
  H  H54  1  0.60000000  0.17430000  0.65320000  1
  H  H55  1  0.61420000  0.02300000  0.38260000  1
  H  H56  1  0.65590000  0.36890000  0.26170000  1
  H  H57  1  0.67070000  0.90100000  0.65180000  1
  H  H58  1  0.67480000  0.87860000  0.77830000  1
  H  H59  1  0.68270000  0.80800000  0.23460000  1
  H  H60  1  0.68660000  0.30590000  0.83710000  1
  H  H61  1  0.68690000  0.73820000  0.14790000  1
  H  H62  1  0.69450000  0.28690000  0.33700000  1
  H  H63  1  0.71640000  0.60220000  0.79010000  1
  H  H64  1  0.72990000  0.36540000  0.17190000  1
  H  H65  1  0.73310000  0.83490000  0.86330000  1
  H  H66  1  0.76680000  0.89480000  0.69580000  1
  H  H67  1  0.78080000  0.79540000  0.31000000  1
  H  H68  1  0.78750000  0.56790000  0.87910000  1
  H  H69  1  0.78800000  0.64190000  0.13730000  1
  H  H70  1  0.81570000  0.22550000  0.32780000  1
  H  H71  1  0.85560000  0.36900000  0.46570000  1
  H  H72  1  0.86900000  0.47390000  0.54380000  1
  H  H73  1  0.88330000  0.88070000  0.04420000  1
  H  H74  1  0.88340000  0.80730000  0.86590000  1
  H  H75  1  0.91730000  0.24820000  0.46600000  1
  H  H76  1  0.92700000  0.95770000  0.13030000  1
  H  H77  1  0.93180000  0.74910000  0.02600000  1
  H  H78  1  0.97140000  0.08440000  0.80030000  1
  H  H79  1  0.97470000  0.46150000  0.62320000  1
  C  C80  1  0.01100000  0.88200000  0.16370000  1
  C  C81  1  0.01400000  0.76200000  0.09920000  1
  C  C82  1  0.01700000  0.20600000  0.55900000  1
  C  C83  1  0.03200000  0.72400000  0.44960000  1
  C  C84  1  0.04200000  0.58500000  0.40740000  1
  C  C85  1  0.04700000  0.21400000  0.93940000  1
  C  C86  1  0.04700000  0.68100000  0.08820000  1
  C  C87  1  0.05100000  0.09300000  0.87910000  1
  C  C88  1  0.05800000  0.13000000  0.31230000  1
  C  C89  1  0.07700000  0.71100000  0.50100000  1
  C  C90  1  0.07800000  0.13800000  0.92870000  1
  C  C91  1  0.09900000  0.40100000  0.77540000  1
  C  C92  1  0.10200000  0.57300000  0.45590000  1
  C  C93  1  0.10900000  0.69300000  0.84600000  1
  C  C94  1  0.11100000  0.63800000  0.50060000  1
  C  C95  1  0.11980000  0.13930000  0.26850000  1
  C  C96  1  0.14000000  0.17510000  0.16820000  1
  C  C97  1  0.16100000  0.34400000  0.77690000  1
  C  C98  1  0.17200000  0.69300000  0.79740000  1
  C  C99  1  0.19900000  0.74300000  0.70340000  1
  C  C100  1  0.20990000  0.12280000  0.27010000  1
  C  C101  1  0.21600000  0.32900000  0.82670000  1
  C  C102  1  0.21800000  0.83100000  0.30370000  1
  C  C103  1  0.22000000  0.24000000  0.72440000  1
  C  C104  1  0.23000000  0.15860000  0.16970000  1
  C  C105  1  0.24900000  0.65900000  0.79550000  1
  C  C106  1  0.26500000  0.13240000  0.22070000  1
  C  C107  1  0.27200000  0.70700000  0.69730000  1
  C  C108  1  0.27600000  0.27000000  0.82060000  1
  C  C109  1  0.27700000  0.22900000  0.77040000  1
  C  C110  1  0.27800000  0.43400000  0.12340000  1
  C  C111  1  0.29000000  0.78800000  0.28100000  1
  C  C112  1  0.29700000  0.66100000  0.74270000  1
  C  C113  1  0.30000000  0.47000000  0.01800000  1
  C  C114  1  0.32200000  0.41600000  0.17760000  1
  C  C115  1  0.33000000  0.71800000  0.20120000  1
  C  C116  1  0.33100000  0.03800000  0.45270000  1
  C  C117  1  0.33800000  0.45500000  0.07500000  1
  C  C118  1  0.38300000  0.79800000  0.30930000  1
  C  C119  1  0.38640000  0.08380000  0.35510000  1
  C  C120  1  0.40480000  0.05360000  0.40890000  1
  C  C121  1  0.41500000  0.71500000  0.22410000  1
  C  C122  1  0.42500000  0.42700000  0.17910000  1
  C  C123  1  0.44290000  0.96180000  0.62430000  1
  C  C124  1  0.44600000  0.76400000  0.27780000  1
  C  C125  1  0.45350000  0.09110000  0.31160000  1
  C  C126  1  0.46120000  0.93170000  0.67810000  1
  C  C127  1  0.47400000  0.44500000  0.12840000  1
  C  C128  1  0.52600000  0.55500000  0.87160000  1
  C  C129  1  0.53880000  0.06830000  0.32190000  1
  C  C130  1  0.54650000  0.90890000  0.68840000  1
  C  C131  1  0.55400000  0.23600000  0.72220000  1
  C  C132  1  0.55710000  0.03820000  0.37570000  1
  C  C133  1  0.57500000  0.57300000  0.82090000  1
  C  C134  1  0.58500000  0.28500000  0.77590000  1
  C  C135  1  0.59520000  0.94640000  0.59110000  1
  C  C136  1  0.61360000  0.91620000  0.64490000  1
  C  C137  1  0.61700000  0.20200000  0.69070000  1
  C  C138  1  0.66200000  0.54500000  0.92500000  1
  C  C139  1  0.66900000  0.96200000  0.54730000  1
  C  C140  1  0.67000000  0.28200000  0.79880000  1
  C  C141  1  0.67800000  0.58400000  0.82240000  1
  C  C142  1  0.70000000  0.53000000  0.98200000  1
  C  C143  1  0.70300000  0.33900000  0.25730000  1
  C  C144  1  0.71000000  0.21200000  0.71900000  1
  C  C145  1  0.72200000  0.56600000  0.87660000  1
  C  C146  1  0.72300000  0.77100000  0.22960000  1
  C  C147  1  0.72400000  0.73000000  0.17940000  1
  C  C148  1  0.72800000  0.29300000  0.30270000  1
  C  C149  1  0.73500000  0.86760000  0.77930000  1
  C  C150  1  0.75100000  0.34100000  0.20450000  1
  C  C151  1  0.77000000  0.84140000  0.83030000  1
  C  C152  1  0.78000000  0.76000000  0.27560000  1
  C  C153  1  0.78200000  0.16900000  0.69630000  1
  C  C154  1  0.78400000  0.67100000  0.17330000  1
  C  C155  1  0.79010000  0.87720000  0.72990000  1
  C  C156  1  0.80100000  0.25700000  0.29660000  1
  C  C157  1  0.82800000  0.30700000  0.20260000  1
  C  C158  1  0.83900000  0.65600000  0.22310000  1
  C  C159  1  0.86000000  0.82490000  0.83180000  1
  C  C160  1  0.88020000  0.86070000  0.73150000  1
  C  C161  1  0.88900000  0.36200000  0.49940000  1
  C  C162  1  0.89100000  0.30700000  0.15400000  1
  C  C163  1  0.89800000  0.42700000  0.54410000  1
  C  C164  1  0.90100000  0.59900000  0.22460000  1
  C  C165  1  0.92200000  0.86200000  0.07130000  1
  C  C166  1  0.92300000  0.28900000  0.49900000  1
  C  C167  1  0.94200000  0.87000000  0.68770000  1
  C  C168  1  0.94900000  0.90700000  0.12090000  1
  C  C169  1  0.95300000  0.31900000  0.91180000  1
  C  C170  1  0.95300000  0.78600000  0.06060000  1
  C  C171  1  0.95800000  0.41500000  0.59260000  1
  C  C172  1  0.96800000  0.27600000  0.55040000  1
  C  C173  1  0.98300000  0.79400000  0.44100000  1
  C  C174  1  0.98600000  0.23800000  0.90080000  1
  C  C175  1  0.98900000  0.11800000  0.83630000  1
  N  N176  1  0.00470000  0.12570000  0.52910000  1
  N  N177  1  0.00580000  0.54630000  0.26760000  1
  N  N178  1  0.00610000  0.27850000  0.10880000  1
  N  N179  1  0.01050000  0.48780000  0.78730000  1
  N  N180  1  0.01160000  0.65600000  0.40460000  1
  N  N181  1  0.01310000  0.82620000  0.69100000  1
  N  N182  1  0.01450000  0.65750000  0.91880000  1
  N  N183  1  0.01810000  0.60430000  0.05110000  1
  N  N184  1  0.02550000  0.89640000  0.61180000  1
  N  N185  1  0.04320000  0.80730000  0.14840000  1
  N  N186  1  0.05150000  0.39690000  0.72350000  1
  N  N187  1  0.05250000  0.74640000  0.84550000  1
  N  N188  1  0.05420000  0.09230000  0.36540000  1
  N  N189  1  0.06620000  0.08820000  0.56110000  1
  N  N190  1  0.07240000  0.55140000  0.06880000  1
  N  N191  1  0.07320000  0.85600000  0.64320000  1
  N  N192  1  0.07460000  0.45530000  0.81640000  1
  N  N193  1  0.07880000  0.21760000  0.60560000  1
  N  N194  1  0.08490000  0.16550000  0.21750000  1
  N  N195  1  0.09000000  0.63510000  0.89140000  1
  N  N196  1  0.09350000  0.87730000  0.29940000  1
  N  N197  1  0.10690000  0.14260000  0.60390000  1
  N  N198  1  0.11810000  0.67590000  0.12520000  1
  N  N199  1  0.13490000  0.59580000  0.11340000  1
  N  N200  1  0.14000000  0.90510000  0.35000000  1
  N  N201  1  0.14210000  0.82750000  0.26730000  1
  N  N202  1  0.14510000  0.73910000  0.74980000  1
  N  N203  1  0.16620000  0.29840000  0.72560000  1
  N  N204  1  0.20440000  0.45560000  0.99900000  1
  N  N205  1  0.21890000  0.00070000  0.51040000  1
  N  N206  1  0.22040000  0.48230000  0.94360000  1
  N  N207  1  0.22080000  0.87880000  0.35330000  1
  N  N208  1  0.23570000  0.03240000  0.45730000  1
  N  N209  1  0.26800000  0.74990000  0.22600000  1
  N  N210  1  0.29880000  0.98920000  0.53570000  1
  N  N211  1  0.31640000  0.50910000  0.92850000  1
  N  N212  1  0.36700000  0.49940000  0.98050000  1
  N  N213  1  0.36790000  0.01800000  0.49830000  1
  N  N214  1  0.43800000  0.46300000  0.07970000  1
  N  N215  1  0.49010000  0.03080000  0.41920000  1
  N  N216  1  0.50990000  0.96920000  0.58080000  1
  N  N217  1  0.56200000  0.53700000  0.92030000  1
  N  N218  1  0.63210000  0.98200000  0.50170000  1
  N  N219  1  0.63300000  0.50060000  0.01950000  1
  N  N220  1  0.68360000  0.49090000  0.07150000  1
  N  N221  1  0.70120000  0.01080000  0.46430000  1
  N  N222  1  0.73200000  0.25010000  0.77400000  1
  N  N223  1  0.76430000  0.96760000  0.54270000  1
  N  N224  1  0.77920000  0.12120000  0.64670000  1
  N  N225  1  0.77960000  0.51770000  0.05640000  1
  N  N226  1  0.78110000  0.99930000  0.48960000  1
  N  N227  1  0.79560000  0.54440000  0.00100000  1
  N  N228  1  0.83380000  0.70160000  0.27440000  1
  N  N229  1  0.85490000  0.26090000  0.25020000  1
  N  N230  1  0.85790000  0.17250000  0.73270000  1
  N  N231  1  0.86000000  0.09490000  0.65000000  1
  N  N232  1  0.86510000  0.40420000  0.88660000  1
  N  N233  1  0.88190000  0.32410000  0.87480000  1
  N  N234  1  0.89310000  0.85740000  0.39610000  1
  N  N235  1  0.90650000  0.12270000  0.70060000  1
  N  N236  1  0.91000000  0.36490000  0.10860000  1
  N  N237  1  0.91510000  0.83450000  0.78250000  1
  N  N238  1  0.92120000  0.78240000  0.39440000  1
  N  N239  1  0.92540000  0.54470000  0.18360000  1
  N  N240  1  0.92680000  0.14400000  0.35680000  1
  N  N241  1  0.92760000  0.44860000  0.93120000  1
  N  N242  1  0.93380000  0.91180000  0.43890000  1
  N  N243  1  0.94580000  0.90770000  0.63460000  1
  N  N244  1  0.94750000  0.25360000  0.15450000  1
  N  N245  1  0.94850000  0.60310000  0.27650000  1
  N  N246  1  0.95680000  0.19270000  0.85160000  1
  N  N247  1  0.97450000  0.10360000  0.38820000  1
  N  N248  1  0.98190000  0.39570000  0.94890000  1
  N  N249  1  0.98550000  0.34250000  0.08120000  1
  N  N250  1  0.98690000  0.17380000  0.30900000  1
  N  N251  1  0.98840000  0.34400000  0.59540000  1
  N  N252  1  0.98950000  0.51220000  0.21270000  1
  N  N253  1  0.99390000  0.72150000  0.89120000  1
  N  N254  1  0.99420000  0.45370000  0.73240000  1
  N  N255  1  0.99530000  0.87430000  0.47090000  1
