# generated using pymatgen
data_MnH6C10N3
_symmetry_space_group_name_H-M   'P 1'
_cell_length_a   8.36300000
_cell_length_b   12.82700000
_cell_length_c   12.98700000
_cell_angle_alpha   78.01000000
_cell_angle_beta   77.50000000
_cell_angle_gamma   71.85000000
_symmetry_Int_Tables_number   1
_chemical_formula_structural   MnH6C10N3
_chemical_formula_sum   'Mn4 H24 C40 N12'
_cell_volume   1277.57800754
_cell_formula_units_Z   4
loop_
 _symmetry_equiv_pos_site_id
 _symmetry_equiv_pos_as_xyz
  1  'x, y, z'
loop_
 _atom_site_type_symbol
 _atom_site_label
 _atom_site_symmetry_multiplicity
 _atom_site_fract_x
 _atom_site_fract_y
 _atom_site_fract_z
 _atom_site_occupancy
  Mn  Mn0  1  0.10437000  0.77988000  0.95854000  1
  Mn  Mn1  1  0.36189000  0.09808000  0.30991000  1
  Mn  Mn2  1  0.63811000  0.90192000  0.69009000  1
  Mn  Mn3  1  0.89563000  0.22012000  0.04146000  1
  H  H4  1  0.00240000  0.66420000  0.39480000  1
  H  H5  1  0.09690000  0.62120000  0.79680000  1
  H  H6  1  0.12180000  0.52020000  0.32710000  1
  H  H7  1  0.13700000  0.18140000  0.52770000  1
  H  H8  1  0.18750000  0.44760000  0.75180000  1
  H  H9  1  0.20070000  0.27830000  0.74710000  1
  H  H10  1  0.26160000  0.35950000  0.25840000  1
  H  H11  1  0.28370000  0.51540000  0.05750000  1
  H  H12  1  0.31810000  0.10760000  0.69350000  1
  H  H13  1  0.34800000  0.97460000  0.11650000  1
  H  H14  1  0.37670000  0.33760000  0.02270000  1
  H  H15  1  0.45690000  0.80720000  0.05590000  1
  H  H16  1  0.54310000  0.19280000  0.94410000  1
  H  H17  1  0.62330000  0.66240000  0.97730000  1
  H  H18  1  0.65200000  0.02540000  0.88350000  1
  H  H19  1  0.68190000  0.89240000  0.30650000  1
  H  H20  1  0.71630000  0.48460000  0.94250000  1
  H  H21  1  0.73840000  0.64050000  0.74160000  1
  H  H22  1  0.79930000  0.72170000  0.25290000  1
  H  H23  1  0.81250000  0.55240000  0.24820000  1
  H  H24  1  0.86300000  0.81860000  0.47230000  1
  H  H25  1  0.87820000  0.47980000  0.67290000  1
  H  H26  1  0.90310000  0.37880000  0.20320000  1
  H  H27  1  0.99760000  0.33580000  0.60520000  1
  C  C28  1  0.02080000  0.95610000  0.98950000  1
  C  C29  1  0.04430000  0.44790000  0.47630000  1
  C  C30  1  0.05050000  0.34310000  0.53440000  1
  C  C31  1  0.10950000  0.19450000  0.12310000  1
  C  C32  1  0.12440000  0.45210000  0.37010000  1
  C  C33  1  0.13500000  0.25040000  0.48700000  1
  C  C34  1  0.14490000  0.71370000  0.12090000  1
  C  C35  1  0.15580000  0.56370000  0.84300000  1
  C  C36  1  0.20760000  0.35470000  0.32900000  1
  C  C37  1  0.20960000  0.45890000  0.81520000  1
  C  C38  1  0.26390000  0.50170000  0.99450000  1
  C  C39  1  0.29390000  0.22870000  0.77540000  1
  C  C40  1  0.29550000  0.37140000  0.88080000  1
  C  C41  1  0.32130000  0.39410000  0.97420000  1
  C  C42  1  0.32410000  0.80150000  0.84180000  1
  C  C43  1  0.36130000  0.25730000  0.85140000  1
  C  C44  1  0.36670000  0.12610000  0.74270000  1
  C  C45  1  0.43790000  0.92220000  0.14580000  1
  C  C46  1  0.47730000  0.01970000  0.45950000  1
  C  C47  1  0.49630000  0.17840000  0.89160000  1
  C  C48  1  0.50370000  0.82160000  0.10840000  1
  C  C49  1  0.52270000  0.98030000  0.54050000  1
  C  C50  1  0.56210000  0.07780000  0.85420000  1
  C  C51  1  0.63330000  0.87390000  0.25730000  1
  C  C52  1  0.63870000  0.74270000  0.14860000  1
  C  C53  1  0.67590000  0.19850000  0.15820000  1
  C  C54  1  0.67870000  0.60590000  0.02580000  1
  C  C55  1  0.70450000  0.62860000  0.11920000  1
  C  C56  1  0.70610000  0.77130000  0.22460000  1
  C  C57  1  0.73610000  0.49830000  0.00550000  1
  C  C58  1  0.79040000  0.54110000  0.18480000  1
  C  C59  1  0.79240000  0.64530000  0.67100000  1
  C  C60  1  0.84420000  0.43630000  0.15700000  1
  C  C61  1  0.85510000  0.28630000  0.87910000  1
  C  C62  1  0.86500000  0.74960000  0.51300000  1
  C  C63  1  0.87560000  0.54790000  0.62990000  1
  C  C64  1  0.89050000  0.80550000  0.87690000  1
  C  C65  1  0.94950000  0.65690000  0.46560000  1
  C  C66  1  0.95570000  0.55210000  0.52370000  1
  C  C67  1  0.97920000  0.04390000  0.01050000  1
  N  N68  1  0.16470000  0.68160000  0.20610000  1
  N  N69  1  0.18180000  0.58820000  0.93030000  1
  N  N70  1  0.20620000  0.17230000  0.17910000  1
  N  N71  1  0.21490000  0.25360000  0.38520000  1
  N  N72  1  0.43420000  0.82290000  0.78090000  1
  N  N73  1  0.49720000  0.94800000  0.22230000  1
  N  N74  1  0.50280000  0.05200000  0.77770000  1
  N  N75  1  0.56580000  0.17710000  0.21910000  1
  N  N76  1  0.78510000  0.74640000  0.61480000  1
  N  N77  1  0.79380000  0.82770000  0.82090000  1
  N  N78  1  0.81820000  0.41180000  0.06970000  1
  N  N79  1  0.83530000  0.31840000  0.79390000  1
