# generated using pymatgen
data_Cd6H96C143(N6O11)2
_symmetry_space_group_name_H-M   'P 1'
_cell_length_a   21.15392118
_cell_length_b   21.15392118
_cell_length_c   22.19432678
_cell_angle_alpha   115.96569460
_cell_angle_beta   116.21215596
_cell_angle_gamma   94.42840453
_symmetry_Int_Tables_number   1
_chemical_formula_structural   Cd6H96C143(N6O11)2
_chemical_formula_sum   'Cd12 H192 C286 N24 O44'
_cell_volume   7546.65998480
_cell_formula_units_Z   2
loop_
 _symmetry_equiv_pos_site_id
 _symmetry_equiv_pos_as_xyz
  1  'x, y, z'
loop_
 _atom_site_type_symbol
 _atom_site_label
 _atom_site_symmetry_multiplicity
 _atom_site_fract_x
 _atom_site_fract_y
 _atom_site_fract_z
 _atom_site_occupancy
  C  C0  1  0.93250000  0.73440000  0.79690000  1
  C  C1  1  0.56250000  0.86440000  0.29690000  1
  C  C2  1  0.42120000  0.77450000  0.34390000  1
  C  C3  1  0.06940000  0.92270000  0.84390000  1
  C  C4  1  0.39700000  0.44650000  0.02790000  1
  C  C5  1  0.08140000  0.63090000  0.52790000  1
  C  C6  1  0.94300000  0.55070000  0.58090000  1
  C  C7  1  0.53020000  0.63790000  0.08090000  1
  C  C8  1  0.35150000  0.45600000  0.05670000  1
  C  C9  1  0.10070000  0.70520000  0.55670000  1
  C  C10  1  0.83850000  0.74440000  0.85330000  1
  C  C11  1  0.60890000  0.01480000  0.35330000  1
  C  C12  1  0.74540000  0.84980000  0.04580000  1
  C  C13  1  0.69600000  0.30040000  0.54580000  1
  C  C14  1  0.46420000  0.05190000  0.52630000  1
  C  C15  1  0.97440000  0.06210000  0.02630000  1
  C  C16  1  0.72080000  0.27540000  0.49040000  1
  C  C17  1  0.71500000  0.76960000  0.99040000  1
  C  C18  1  0.92440000  0.01030000  0.02070000  1
  C  C19  1  0.51040000  0.09630000  0.52070000  1
  C  C20  1  0.95210000  0.62630000  0.60600000  1
  C  C21  1  0.47970000  0.65390000  0.10600000  1
  C  C22  1  0.74080000  0.96340000  0.14400000  1
  C  C23  1  0.68060000  0.40320000  0.64400000  1
  C  C24  1  0.78880000  0.01130000  0.14330000  1
  C  C25  1  0.63200000  0.35450000  0.64330000  1
  C  C26  1  0.71150000  0.88020000  0.08870000  1
  C  C27  1  0.70850000  0.37720000  0.58870000  1
  C  C28  1  0.81270000  0.08690000  0.19180000  1
  C  C29  1  0.60490000  0.37910000  0.69180000  1
  C  C30  1  0.71570000  0.99920000  0.19470000  1
  C  C31  1  0.69550000  0.47900000  0.69470000  1
  C  C32  1  0.75400000  0.32400000  0.47840000  1
  C  C33  1  0.65440000  0.72440000  0.97840000  1
  C  C34  1  0.91020000  0.50370000  0.49910000  1
  C  C35  1  0.49540000  0.58890000  0.99910000  1
  C  C36  1  0.77810000  0.29430000  0.42100000  1
  C  C37  1  0.62670000  0.64290000  0.92100000  1
  C  C38  1  0.73620000  0.07350000  0.23630000  1
  C  C39  1  0.66280000  0.50010000  0.73630000  1
  C  C40  1  0.85580000  0.70310000  0.74490000  1
  C  C41  1  0.54180000  0.88910000  0.24490000  1
  C  C42  1  0.74280000  0.42350000  0.57770000  1
  C  C43  1  0.65420000  0.83490000  0.07770000  1
  C  C44  1  0.40060000  0.80430000  0.29430000  1
  C  C45  1  0.99000000  0.89370000  0.79430000  1
  C  C46  1  0.76350000  0.39730000  0.52340000  1
  C  C47  1  0.62610000  0.75990000  0.02340000  1
  C  C48  1  0.80880000  0.71040000  0.77120000  1
  C  C49  1  0.56080000  0.96240000  0.27120000  1
  C  C50  1  0.41050000  0.88050000  0.32060000  1
  C  C51  1  0.94010000  0.91010000  0.82060000  1
  C  C52  1  0.27210000  0.42810000  0.00380000  1
  C  C53  1  0.07570000  0.73170000  0.50380000  1
  C  C54  1  0.40180000  0.62210000  0.05610000  1
  C  C55  1  0.93400000  0.65430000  0.55610000  1
  C  C56  1  0.38400000  0.02390000  0.47110000  1
  C  C57  1  0.94720000  0.08710000  0.97110000  1
  C  C58  1  0.84930000  0.98450000  0.96340000  1
  C  C59  1  0.47890000  0.11410000  0.46340000  1
  C  C60  1  0.37010000  0.75950000  0.21280000  1
  C  C61  1  0.95330000  0.84270000  0.71280000  1
  C  C62  1  0.89150000  0.53420000  0.44950000  1
  C  C63  1  0.41530000  0.55800000  0.94950000  1
  C  C64  1  0.72560000  0.68060000  0.71680000  1
  C  C65  1  0.53620000  0.99120000  0.21680000  1
  C  C66  1  0.86350000  0.87720000  0.76790000  1
  C  C67  1  0.39070000  0.90440000  0.26790000  1
  C  C68  1  0.14850000  0.71270000  0.30520000  1
  C  C69  1  0.09250000  0.15670000  0.80520000  1
  C  C70  1  0.22020000  0.18190000  0.69850000  1
  C  C71  1  0.01660000  0.47830000  0.19850000  1
  C  C72  1  0.15650000  0.02030000  0.59920000  1
  C  C73  1  0.07890000  0.44270000  0.09920000  1
  C  C74  1  0.24710000  0.25920000  0.74730000  1
  C  C75  1  0.98810000  0.50020000  0.24730000  1
  C  C76  1  0.12770000  0.94340000  0.54730000  1
  C  C77  1  0.10390000  0.41960000  0.04730000  1
  C  C78  1  0.11360000  0.23650000  0.84970000  1
  C  C79  1  0.11320000  0.73610000  0.34970000  1
  C  C80  1  0.35390000  0.04420000  0.41630000  1
  C  C81  1  0.87210000  0.06240000  0.91630000  1
  C  C82  1  0.34840000  0.78810000  0.16470000  1
  C  C83  1  0.87660000  0.81630000  0.66470000  1
  C  C84  1  0.82230000  0.01000000  0.91110000  1
  C  C85  1  0.40110000  0.08880000  0.41110000  1
  C  C86  1  0.17770000  0.63410000  0.17400000  1
  C  C87  1  0.03990000  0.99630000  0.67400000  1
  C  C88  1  0.80270000  0.33850000  0.24500000  1
  C  C89  1  0.40650000  0.44230000  0.74500000  1
  C  C90  1  0.19710000  0.60750000  0.11880000  1
  C  C91  1  0.01130000  0.92170000  0.61880000  1
  C  C92  1  0.14580000  0.68900000  0.18440000  1
  C  C93  1  0.14450000  0.14470000  0.64140000  1
  C  C94  1  0.99670000  0.49690000  0.14140000  1
  C  C95  1  0.99540000  0.03860000  0.68440000  1
  C  C96  1  0.11700000  0.71210000  0.23590000  1
  C  C97  1  0.02380000  0.11890000  0.73590000  1
  C  C98  1  0.19800000  0.29930000  0.73890000  1
  C  C99  1  0.93960000  0.54090000  0.23890000  1
  C  C100  1  0.11210000  0.06380000  0.58670000  1
  C  C101  1  0.02290000  0.47460000  0.08670000  1
  C  C102  1  0.70240000  0.23370000  0.16050000  1
  C  C103  1  0.42680000  0.45810000  0.66050000  1
  C  C104  1  0.62620000  0.87680000  0.87640000  1
  C  C105  1  0.49960000  0.25020000  0.37640000  1
  C  C106  1  0.18830000  0.63430000  0.07000000  1
  C  C107  1  0.93570000  0.88170000  0.57000000  1
  C  C108  1  0.27390000  0.01670000  0.36340000  1
  C  C109  1  0.84670000  0.08950000  0.86340000  1
  C  C110  1  0.21180000  0.60370000  0.01110000  1
  C  C111  1  0.90740000  0.79930000  0.51110000  1
  C  C112  1  0.64870000  0.85350000  0.82260000  1
  C  C113  1  0.46910000  0.17390000  0.32260000  1
  C  C114  1  0.58300000  0.49370000  0.52670000  1
  C  C115  1  0.53300000  0.94370000  0.02670000  1
  C  C116  1  0.55790000  0.41750000  0.47340000  1
  C  C117  1  0.55590000  0.91550000  0.97340000  1
  C  C118  1  0.22770000  0.95360000  0.33870000  1
  C  C119  1  0.88510000  0.11100000  0.83870000  1
  C  C120  1  0.77360000  0.36800000  0.20160000  1
  C  C121  1  0.33360000  0.42800000  0.70160000  1
  C  C122  1  0.60340000  0.27870000  0.27990000  1
  C  C123  1  0.50120000  0.67650000  0.77990000  1
  C  C124  1  0.57320000  0.20230000  0.23330000  1
  C  C125  1  0.53100000  0.66010000  0.73330000  1
  C  C126  1  0.68760000  0.51710000  0.41430000  1
  C  C127  1  0.39720000  0.72670000  0.91430000  1
  C  C128  1  0.66200000  0.44060000  0.36200000  1
  C  C129  1  0.42140000  0.70000000  0.86200000  1
  C  C130  1  0.13780000  0.71780000  0.13700000  1
  C  C131  1  0.91920000  0.99920000  0.63700000  1
  C  C132  1  0.15870000  0.69250000  0.08040000  1
  C  C133  1  0.88790000  0.92170000  0.58040000  1
  C  C134  1  0.09550000  0.18480000  0.63310000  1
  C  C135  1  0.94830000  0.53760000  0.13310000  1
  C  C136  1  0.55890000  0.95190000  0.93580000  1
  C  C137  1  0.48390000  0.37690000  0.43580000  1
  C  C138  1  0.12230000  0.26210000  0.68180000  1
  C  C139  1  0.91970000  0.55950000  0.18180000  1
  C  C140  1  0.05320000  0.73220000  0.21740000  1
  C  C141  1  0.98520000  0.16420000  0.71740000  1
  C  C142  1  0.58260000  0.92550000  0.87950000  1
  C  C143  1  0.45400000  0.29690000  0.37950000  1
  C  C144  1  0.02450000  0.75140000  0.26310000  1
  C  C145  1  0.01170000  0.23860000  0.76310000  1
  C  C146  1  0.03890000  0.03040000  0.52230000  1
  C  C147  1  0.99190000  0.48340000  0.02230000  1
  C  C148  1  0.01690000  0.46020000  0.97030000  1
  C  C149  1  0.01010000  0.95340000  0.47030000  1
  C  C150  1  0.63350000  0.87900000  0.77130000  1
  C  C151  1  0.39230000  0.13780000  0.27130000  1
  C  C152  1  0.67110000  0.63560000  0.48970000  1
  C  C153  1  0.35410000  0.81860000  0.98970000  1
  C  C154  1  0.67100000  0.25630000  0.10950000  1
  C  C155  1  0.35320000  0.43850000  0.60950000  1
  C  C156  1  0.66010000  0.85960000  0.71630000  1
  C  C157  1  0.35670000  0.05620000  0.21630000  1
  C  C158  1  0.70880000  0.32530000  0.12770000  1
  C  C159  1  0.30240000  0.41890000  0.62770000  1
  C  C160  1  0.63870000  0.55660000  0.42490000  1
  C  C161  1  0.36830000  0.78620000  0.92490000  1
  C  C162  1  0.14810000  0.93080000  0.28930000  1
  C  C163  1  0.85850000  0.14120000  0.78930000  1
  C  C164  1  0.23650000  0.05560000  0.32550000  1
  C  C165  1  0.76990000  0.08900000  0.82550000  1
  C  C166  1  0.55660000  0.31900000  0.26520000  1
  C  C167  1  0.44620000  0.70860000  0.76520000  1
  C  C168  1  0.58430000  0.40160000  0.31830000  1
  C  C169  1  0.41670000  0.73400000  0.81830000  1
  C  C170  1  0.51670000  0.03820000  0.00850000  1
  C  C171  1  0.47030000  0.49180000  0.50850000  1
  C  C172  1  0.53910000  0.01610000  0.95660000  1
  C  C173  1  0.44050000  0.41750000  0.45660000  1
  C  C174  1  0.56390000  0.94770000  0.82280000  1
  C  C175  1  0.37510000  0.25890000  0.32280000  1
  C  C176  1  0.58950000  0.92570000  0.77200000  1
  C  C177  1  0.34630000  0.18250000  0.27200000  1
  C  C178  1  0.56320000  0.51580000  0.38140000  1
  C  C179  1  0.36560000  0.81820000  0.88140000  1
  C  C180  1  0.53590000  0.43990000  0.32680000  1
  C  C181  1  0.38690000  0.79090000  0.82680000  1
  C  C182  1  0.20450000  0.53090000  0.74540000  1
  C  C183  1  0.71450000  0.54090000  0.24540000  1
  C  C184  1  0.45880000  0.70400000  0.66080000  1
  C  C185  1  0.45680000  0.20200000  0.16080000  1
  C  C186  1  0.70160000  0.62880000  0.33700000  1
  C  C187  1  0.20820000  0.63540000  0.83700000  1
  C  C188  1  0.16040000  0.03210000  0.27830000  1
  C  C189  1  0.74620000  0.11790000  0.77830000  1
  C  C190  1  0.48130000  0.27770000  0.20080000  1
  C  C191  1  0.42310000  0.71950000  0.70080000  1
  C  C192  1  0.17330000  0.34670000  0.57740000  1
  C  C193  1  0.73070000  0.40410000  0.07740000  1
  C  C194  1  0.67730000  0.35170000  0.06920000  1
  C  C195  1  0.21750000  0.39190000  0.56920000  1
  C  C196  1  0.03230000  0.44670000  0.79580000  1
  C  C197  1  0.84910000  0.76350000  0.29580000  1
  C  C198  1  0.15580000  0.87910000  0.05770000  1
  C  C199  1  0.67860000  0.90190000  0.55770000  1
  C  C200  1  0.66230000  0.79290000  0.46120000  1
  C  C201  1  0.16830000  0.79890000  0.96120000  1
  C  C202  1  0.63740000  0.50740000  0.19380000  1
  C  C203  1  0.18640000  0.55640000  0.69380000  1
  C  C204  1  0.62300000  0.59930000  0.28850000  1
  C  C205  1  0.18920000  0.66550000  0.78850000  1
  C  C206  1  0.09720000  0.31900000  0.52700000  1
  C  C207  1  0.70800000  0.42980000  0.02700000  1
  C  C208  1  0.48990000  0.68350000  0.49620000  1
  C  C209  1  0.31270000  0.00630000  0.99620000  1
  C  C210  1  0.60410000  0.32850000  0.01060000  1
  C  C211  1  0.18210000  0.40650000  0.51060000  1
  C  C212  1  0.01210000  0.47010000  0.74060000  1
  C  C213  1  0.77050000  0.72850000  0.24060000  1
  C  C214  1  0.58880000  0.53880000  0.21300000  1
  C  C215  1  0.17420000  0.62420000  0.71300000  1
  C  C216  1  0.94530000  0.66060000  0.97730000  1
  C  C217  1  0.81670000  0.03200000  0.47730000  1
  C  C218  1  0.91740000  0.58220000  0.92460000  1
  C  C219  1  0.84240000  0.00720000  0.42460000  1
  C  C220  1  0.94060000  0.77340000  0.07840000  1
  C  C221  1  0.80500000  0.13780000  0.57840000  1
  C  C222  1  0.08200000  0.85390000  0.01270000  1
  C  C223  1  0.65880000  0.93070000  0.51270000  1
  C  C224  1  0.09360000  0.76500000  0.90920000  1
  C  C225  1  0.64420000  0.81560000  0.40920000  1
  C  C226  1  0.90530000  0.68940000  0.01650000  1
  C  C227  1  0.82710000  0.11120000  0.51650000  1
  C  C228  1  0.97030000  0.04150000  0.30220000  1
  C  C229  1  0.76070000  0.33190000  0.80220000  1
  C  C230  1  0.94760000  0.07150000  0.35270000  1
  C  C231  1  0.78120000  0.40510000  0.85270000  1
  C  C232  1  0.90130000  0.92140000  0.24790000  1
  C  C233  1  0.82650000  0.34660000  0.74790000  1
  C  C234  1  0.89700000  0.02390000  0.35370000  1
  C  C235  1  0.82980000  0.45670000  0.85370000  1
  C  C236  1  0.99330000  0.43190000  0.66480000  1
  C  C237  1  0.73290000  0.67150000  0.16480000  1
  C  C238  1  0.87410000  0.94820000  0.29870000  1
  C  C239  1  0.85050000  0.42460000  0.79870000  1
  C  C240  1  0.00140000  0.53710000  0.76010000  1
  C  C241  1  0.72300000  0.75870000  0.26010000  1
  C  C242  1  0.86940000  0.05170000  0.40610000  1
  C  C243  1  0.85440000  0.53670000  0.90610000  1
  C  C244  1  0.85390000  0.15410000  0.50020000  1
  C  C245  1  0.84610000  0.64630000  0.00020000  1
  C  C246  1  0.06530000  0.33550000  0.46780000  1
  C  C247  1  0.63230000  0.40250000  0.96780000  1
  C  C248  1  0.46700000  0.71720000  0.44400000  1
  C  C249  1  0.22680000  0.97700000  0.94400000  1
  C  C250  1  0.58280000  0.35330000  0.96390000  1
  C  C251  1  0.11060000  0.38110000  0.46390000  1
  C  C252  1  0.87420000  0.12830000  0.44490000  1
  C  C253  1  0.81660000  0.57070000  0.94490000  1
  C  C254  1  0.04630000  0.79710000  0.93580000  1
  C  C255  1  0.63870000  0.88950000  0.43580000  1
  C  C256  1  0.48990000  0.79360000  0.47490000  1
  C  C257  1  0.18130000  0.98500000  0.97490000  1
  C  C258  1  0.50740000  0.50870000  0.15970000  1
  C  C259  1  0.15100000  0.65230000  0.65970000  1
  C  C260  1  0.45810000  0.51670000  0.19080000  1
  C  C261  1  0.17410000  0.73270000  0.69080000  1
  C  C262  1  0.98190000  0.56130000  0.70660000  1
  C  C263  1  0.64530000  0.72470000  0.20660000  1
  C  C264  1  0.96960000  0.45570000  0.61070000  1
  C  C265  1  0.65500000  0.64110000  0.11070000  1
  C  C266  1  0.42400000  0.66880000  0.36180000  1
  C  C267  1  0.19300000  0.93780000  0.86180000  1
  C  C268  1  0.98040000  0.30380000  0.41200000  1
  C  C269  1  0.60820000  0.43160000  0.91200000  1
  C  C270  1  0.47510000  0.47110000  0.07940000  1
  C  C271  1  0.10830000  0.60430000  0.57940000  1
  C  C272  1  0.46970000  0.82240000  0.42870000  1
  C  C273  1  0.10630000  0.95900000  0.92870000  1
  C  C274  1  0.96380000  0.76630000  0.87790000  1
  C  C275  1  0.61160000  0.91410000  0.37790000  1
  C  C276  1  0.96420000  0.52280000  0.63220000  1
  C  C277  1  0.60940000  0.66800000  0.13220000  1
  C  C278  1  0.91580000  0.77480000  0.90640000  1
  C  C279  1  0.63160000  0.99060000  0.40640000  1
  C  C280  1  0.94880000  0.98400000  0.07340000  1
  C  C281  1  0.58940000  0.12460000  0.57340000  1
  C  C282  1  0.38180000  0.48920000  0.14140000  1
  C  C283  1  0.15220000  0.75960000  0.64140000  1
  C  C284  1  0.40190000  0.70010000  0.31440000  1
  C  C285  1  0.11430000  0.91250000  0.81440000  1
  Cd  Cd286  1  0.82851000  0.24488000  0.32479000  1
  Cd  Cd287  1  0.57991000  0.49628000  0.82479000  1
  Cd  Cd288  1  0.12364000  0.40585000  0.90255000  1
  Cd  Cd289  1  0.99670000  0.77891000  0.40255000  1
  Cd  Cd290  1  0.24295000  0.52349000  0.89690000  1
  Cd  Cd291  1  0.87341000  0.65395000  0.39690000  1
  Cd  Cd292  1  0.58151000  0.65930000  0.61553000  1
  Cd  Cd293  1  0.45623000  0.03402000  0.11553000  1
  Cd  Cd294  1  0.70391000  0.77854000  0.60953000  1
  Cd  Cd295  1  0.33099000  0.90562000  0.10953000  1
  Cd  Cd296  1  0.98950000  0.92201000  0.16551000  1
  Cd  Cd297  1  0.74350000  0.17601000  0.66551000  1
  H  H298  1  0.97190000  0.66070000  0.66040000  1
  H  H299  1  0.49970000  0.68850000  0.16040000  1
  H  H300  1  0.37190000  0.66720000  0.25870000  1
  H  H301  1  0.09150000  0.88680000  0.75870000  1
  H  H302  1  0.78640000  0.88040000  0.05280000  1
  H  H303  1  0.67240000  0.26640000  0.55280000  1
  H  H304  1  0.73750000  0.74740000  0.96130000  1
  H  H305  1  0.71390000  0.22380000  0.46130000  1
  H  H306  1  0.80580000  0.74640000  0.87220000  1
  H  H307  1  0.62580000  0.06640000  0.37220000  1
  H  H308  1  0.37610000  0.42320000  0.97250000  1
  H  H309  1  0.04930000  0.59640000  0.47250000  1
  H  H310  1  0.90020000  0.45140000  0.47620000  1
  H  H311  1  0.52480000  0.57600000  0.97620000  1
  H  H312  1  0.80550000  0.99060000  0.10790000  1
  H  H313  1  0.61730000  0.30240000  0.60790000  1
  H  H314  1  0.84800000  0.11740000  0.19160000  1
  H  H315  1  0.57420000  0.34360000  0.69160000  1
  H  H316  1  0.72940000  0.51590000  0.69970000  1
  H  H317  1  0.68380000  0.97030000  0.19970000  1
  H  H318  1  0.43110000  0.91580000  0.37510000  1
  H  H319  1  0.95930000  0.94400000  0.87510000  1
  H  H320  1  0.75290000  0.47570000  0.60820000  1
  H  H321  1  0.63250000  0.85530000  0.10820000  1
  H  H322  1  0.71320000  0.09540000  0.26480000  1
  H  H323  1  0.66940000  0.55160000  0.76480000  1
  H  H324  1  0.78580000  0.43220000  0.51640000  1
  H  H325  1  0.58420000  0.73060000  0.01640000  1
  H  H326  1  0.83600000  0.67590000  0.68970000  1
  H  H327  1  0.51380000  0.85370000  0.18970000  1
  H  H328  1  0.36420000  0.70790000  0.19010000  1
  H  H329  1  0.98220000  0.82590000  0.69010000  1
  H  H330  1  0.35210000  0.99140000  0.47290000  1
  H  H331  1  0.98150000  0.12080000  0.97290000  1
  H  H332  1  0.81500000  0.94870000  0.95930000  1
  H  H333  1  0.51060000  0.14430000  0.45930000  1
  H  H334  1  0.37130000  0.63150000  0.07780000  1
  H  H335  1  0.94630000  0.70650000  0.57780000  1
  H  H336  1  0.19150000  0.69840000  0.32270000  1
  H  H337  1  0.12430000  0.13120000  0.82270000  1
  H  H338  1  0.20650000  0.04320000  0.64330000  1
  H  H339  1  0.10010000  0.43680000  0.14330000  1
  H  H340  1  0.25380000  0.15450000  0.70430000  1
  H  H341  1  0.04980000  0.45050000  0.20430000  1
  H  H342  1  0.29880000  0.28460000  0.78620000  1
  H  H343  1  0.00160000  0.48740000  0.28620000  1
  H  H344  1  0.15810000  0.91380000  0.55590000  1
  H  H345  1  0.14210000  0.39780000  0.05590000  1
  H  H346  1  0.16000000  0.26230000  0.89890000  1
  H  H347  1  0.13660000  0.73890000  0.39890000  1
  H  H348  1  0.18650000  0.61370000  0.20640000  1
  H  H349  1  0.09270000  0.01990000  0.70640000  1
  H  H350  1  0.85160000  0.36690000  0.29050000  1
  H  H351  1  0.42360000  0.43890000  0.79050000  1
  H  H352  1  0.87320000  0.50140000  0.39500000  1
  H  H353  1  0.39360000  0.52180000  0.89500000  1
  H  H354  1  0.21770000  0.56840000  0.11370000  1
  H  H355  1  0.04530000  0.89600000  0.61370000  1
  H  H356  1  0.83270000  0.88780000  0.78930000  1
  H  H357  1  0.40150000  0.95660000  0.28930000  1
  H  H358  1  0.64010000  0.86020000  0.91230000  1
  H  H359  1  0.55210000  0.27220000  0.41230000  1
  H  H360  1  0.24830000  0.92110000  0.35440000  1
  H  H361  1  0.93330000  0.10610000  0.85440000  1
  H  H362  1  0.32480000  0.75440000  0.10920000  1
  H  H363  1  0.85480000  0.78440000  0.60920000  1
  H  H364  1  0.67520000  0.81910000  0.82070000  1
  H  H365  1  0.50160000  0.14550000  0.32070000  1
  H  H366  1  0.60690000  0.17580000  0.24370000  1
  H  H367  1  0.56790000  0.63680000  0.74370000  1
  H  H368  1  0.65470000  0.30290000  0.32080000  1
  H  H369  1  0.51790000  0.66610000  0.82080000  1
  H  H370  1  0.63420000  0.52050000  0.55170000  1
  H  H371  1  0.53120000  0.91750000  0.05170000  1
  H  H372  1  0.59130000  0.39380000  0.46290000  1
  H  H373  1  0.56910000  0.87160000  0.96290000  1
  H  H374  1  0.77050000  0.99180000  0.87250000  1
  H  H375  1  0.38070000  0.10200000  0.37250000  1
  H  H376  1  0.73960000  0.54380000  0.44380000  1
  H  H377  1  0.40000000  0.70420000  0.94380000  1
  H  H378  1  0.69590000  0.41510000  0.35580000  1
  H  H379  1  0.44070000  0.65990000  0.85580000  1
  H  H380  1  0.67530000  0.18640000  0.14650000  1
  H  H381  1  0.46010000  0.47120000  0.64650000  1
  H  H382  1  0.79740000  0.41850000  0.22130000  1
  H  H383  1  0.30280000  0.42390000  0.72130000  1
  H  H384  1  0.11710000  0.88830000  0.27980000  1
  H  H385  1  0.89150000  0.16270000  0.77980000  1
  H  H386  1  0.11700000  0.75670000  0.14290000  1
  H  H387  1  0.88620000  0.02590000  0.64290000  1
  H  H388  1  0.73560000  0.06810000  0.83390000  1
  H  H389  1  0.26580000  0.09830000  0.33390000  1
  H  H390  1  0.15280000  0.71460000  0.05000000  1
  H  H391  1  0.83540000  0.89720000  0.55000000  1
  H  H392  1  0.04370000  0.15930000  0.59400000  1
  H  H393  1  0.93470000  0.55030000  0.09400000  1
  H  H394  1  0.19610000  0.33560000  0.61750000  1
  H  H395  1  0.78190000  0.42140000  0.11750000  1
  H  H396  1  0.08880000  0.28950000  0.67610000  1
  H  H397  1  0.88660000  0.58730000  0.17610000  1
  H  H398  1  0.02860000  0.73220000  0.16980000  1
  H  H399  1  0.93760000  0.14120000  0.66980000  1
  H  H400  1  0.00860000  0.06010000  0.51370000  1
  H  H401  1  0.98170000  0.26560000  0.74610000  1
  H  H402  1  0.98050000  0.76440000  0.24610000  1
  H  H403  1  0.95360000  0.50510000  0.01370000  1
  H  H404  1  0.62400000  0.22580000  0.06180000  1
  H  H405  1  0.33600000  0.43780000  0.56180000  1
  H  H406  1  0.21000000  0.48300000  0.72880000  1
  H  H407  1  0.99570000  0.46620000  0.92630000  1
  H  H408  1  0.96010000  0.93060000  0.42630000  1
  H  H409  1  0.74580000  0.51880000  0.22880000  1
  H  H410  1  0.50210000  0.08130000  0.01960000  1
  H  H411  1  0.43830000  0.51750000  0.51960000  1
  H  H412  1  0.21720000  0.66540000  0.88860000  1
  H  H413  1  0.72320000  0.67140000  0.38860000  1
  H  H414  1  0.54130000  0.04450000  0.93380000  1
  H  H415  1  0.38930000  0.39250000  0.43380000  1
  H  H416  1  0.52940000  0.54050000  0.38910000  1
  H  H417  1  0.34860000  0.85970000  0.88910000  1
  H  H418  1  0.53310000  0.97800000  0.82010000  1
  H  H419  1  0.34210000  0.28700000  0.32010000  1
  H  H420  1  0.57710000  0.94270000  0.73640000  1
  H  H421  1  0.29370000  0.15930000  0.23640000  1
  H  H422  1  0.17720000  0.92010000  0.11010000  1
  H  H423  1  0.69000000  0.93290000  0.61010000  1
  H  H424  1  0.48350000  0.41390000  0.29500000  1
  H  H425  1  0.38110000  0.81150000  0.79500000  1
  H  H426  1  0.65920000  0.74210000  0.44210000  1
  H  H427  1  0.20000000  0.78290000  0.94210000  1
  H  H428  1  0.44470000  0.71530000  0.62060000  1
  H  H429  1  0.40530000  0.17590000  0.12060000  1
  H  H430  1  0.13760000  0.06220000  0.26000000  1
  H  H431  1  0.69780000  0.12240000  0.76000000  1
  H  H432  1  0.44820000  0.30320000  0.18580000  1
  H  H433  1  0.38260000  0.73760000  0.68580000  1
  H  H434  1  0.06650000  0.28910000  0.53220000  1
  H  H435  1  0.74310000  0.46570000  0.03220000  1
  H  H436  1  0.61770000  0.46230000  0.14460000  1
  H  H437  1  0.18230000  0.52690000  0.64460000  1
  H  H438  1  0.94430000  0.56030000  0.90100000  1
  H  H439  1  0.84070000  0.95670000  0.40100000  1
  H  H440  1  0.98710000  0.69210000  0.98640000  1
  H  H441  1  0.79430000  0.99930000  0.48640000  1
  H  H442  1  0.59360000  0.62140000  0.30820000  1
  H  H443  1  0.18680000  0.71460000  0.80820000  1
  H  H444  1  0.56780000  0.29300000  0.00440000  1
  H  H445  1  0.21140000  0.43660000  0.50440000  1
  H  H446  1  0.99650000  0.38320000  0.64550000  1
  H  H447  1  0.76230000  0.64900000  0.14550000  1
  H  H448  1  0.00720000  0.56770000  0.81010000  1
  H  H449  1  0.74240000  0.80290000  0.31010000  1
  H  H450  1  0.96510000  0.12410000  0.38760000  1
  H  H451  1  0.76350000  0.42250000  0.88760000  1
  H  H452  1  0.00200000  0.07470000  0.30110000  1
  H  H453  1  0.72640000  0.29910000  0.80110000  1
  H  H454  1  0.52080000  0.82650000  0.53050000  1
  H  H455  1  0.20400000  0.00970000  0.03050000  1
  H  H456  1  0.88280000  0.86940000  0.20980000  1
  H  H457  1  0.84040000  0.32700000  0.70980000  1
  H  H458  1  0.88170000  0.45610000  0.79540000  1
  H  H459  1  0.83930000  0.91370000  0.29540000  1
  H  H460  1  0.05360000  0.87540000  0.03420000  1
  H  H461  1  0.65880000  0.98060000  0.53420000  1
  H  H462  1  0.07340000  0.72230000  0.85810000  1
  H  H463  1  0.63580000  0.78470000  0.35810000  1
  H  H464  1  0.47950000  0.54140000  0.24630000  1
  H  H465  1  0.20490000  0.76680000  0.74630000  1
  H  H466  1  0.85980000  0.20560000  0.52740000  1
  H  H467  1  0.82180000  0.66760000  0.02740000  1
  H  H468  1  0.89150000  0.16120000  0.43270000  1
  H  H469  1  0.77150000  0.54120000  0.93270000  1
  H  H470  1  0.41000000  0.61620000  0.33860000  1
  H  H471  1  0.22240000  0.92860000  0.83860000  1
  H  H472  1  0.53110000  0.33670000  0.92540000  1
  H  H473  1  0.08870000  0.39430000  0.42540000  1
  H  H474  1  0.50580000  0.46130000  0.05790000  1
  H  H475  1  0.09660000  0.55210000  0.55790000  1
  H  H476  1  0.98120000  0.61090000  0.72590000  1
  H  H477  1  0.93570000  0.80120000  0.96170000  1
  H  H478  1  0.66050000  0.02600000  0.46170000  1
  H  H479  1  0.61500000  0.74470000  0.22590000  1
  H  H480  1  0.95750000  0.42310000  0.55820000  1
  H  H481  1  0.63510000  0.60070000  0.05820000  1
  H  H482  1  0.48770000  0.87480000  0.45210000  1
  H  H483  1  0.07730000  0.96440000  0.95210000  1
  H  H484  1  0.34990000  0.49180000  0.16130000  1
  H  H485  1  0.16950000  0.81140000  0.66130000  1
  H  H486  1  0.48500000  0.03990000  0.56590000  1
  H  H487  1  0.02600000  0.08090000  0.06590000  1
  H  H488  1  0.96430000  0.73430000  0.77720000  1
  H  H489  1  0.54290000  0.81290000  0.27720000  1
  N  N490  1  0.78741667  0.11911667  0.23990000  1
  N  N491  1  0.62078333  0.45248333  0.73990000  1
  N  N492  1  0.36950000  0.57730000  0.97580000  1
  N  N493  1  0.89850000  0.60630000  0.47580000  1
  N  N494  1  0.77070000  0.27330000  0.23160000  1
  N  N495  1  0.45830000  0.46090000  0.73160000  1
  N  N496  1  0.83020000  0.83310000  0.69170000  1
  N  N497  1  0.35860000  0.86150000  0.19170000  1
  N  N498  1  0.07710000  0.27680000  0.83050000  1
  N  N499  1  0.05370000  0.75340000  0.33050000  1
  N  N500  1  0.07290000  0.42840000  0.98290000  1
  N  N501  1  0.05450000  0.91000000  0.48290000  1
  N  N502  1  0.54200000  0.53130000  0.54530000  1
  N  N503  1  0.51400000  0.00330000  0.04530000  1
  N  N504  1  0.51460000  0.67270000  0.67550000  1
  N  N505  1  0.50280000  0.16090000  0.17550000  1
  N  N506  1  0.21430000  0.57000000  0.81650000  1
  N  N507  1  0.74650000  0.60220000  0.31650000  1
  N  N508  1  0.11790000  0.96800000  0.25750000  1
  N  N509  1  0.78950000  0.13960000  0.75750000  1
  N  N510  1  0.68420000  0.83670000  0.53850000  1
  N  N511  1  0.20180000  0.85430000  0.03850000  1
  N  N512  1  0.95120000  0.96620000  0.25160000  1
  N  N513  1  0.78540000  0.30040000  0.75160000  1
  O  O514  1  0.94650000  0.31840000  0.35930000  1
  O  O515  1  0.54090000  0.41280000  0.85930000  1
  O  O516  1  0.76570000  0.22610000  0.38180000  1
  O  O517  1  0.65570000  0.61610000  0.88180000  1
  O  O518  1  0.80760000  0.33840000  0.41100000  1
  O  O519  1  0.57260000  0.60340000  0.91100000  1
  O  O520  1  0.22870000  0.42170000  0.03240000  1
  O  O521  1  0.11070000  0.80370000  0.53240000  1
  O  O522  1  0.24300000  0.40610000  0.93030000  1
  O  O523  1  0.02420000  0.68730000  0.43030000  1
  O  O524  1  0.68330000  0.67650000  0.74000000  1
  O  O525  1  0.56350000  0.05670000  0.24000000  1
  O  O526  1  0.70070000  0.66200000  0.64610000  1
  O  O527  1  0.48410000  0.94540000  0.14610000  1
  O  O528  1  0.22090000  0.54420000  0.99110000  1
  O  O529  1  0.94690000  0.77020000  0.49110000  1
  O  O530  1  0.68540000  0.80470000  0.70710000  1
  O  O531  1  0.40240000  0.02170000  0.20710000  1
  O  O532  1  0.73730000  0.67340000  0.52250000  1
  O  O533  1  0.34910000  0.78520000  0.02250000  1
  O  O534  1  0.21420000  0.63960000  0.97940000  1
  O  O535  1  0.83980000  0.76520000  0.47940000  1
  O  O536  1  0.08720000  0.48490000  0.85990000  1
  O  O537  1  0.87500000  0.77270000  0.35990000  1
  O  O538  1  0.62250000  0.66610000  0.50100000  1
  O  O539  1  0.33490000  0.87850000  0.00100000  1
  O  O540  1  0.66260000  0.89670000  0.68710000  1
  O  O541  1  0.29040000  0.02450000  0.18710000  1
  O  O542  1  0.00650000  0.37630000  0.76460000  1
  O  O543  1  0.88830000  0.75810000  0.26460000  1
  O  O544  1  0.54090000  0.73130000  0.56940000  1
  O  O545  1  0.33810000  0.02850000  0.06940000  1
  O  O546  1  0.46250000  0.61870000  0.46820000  1
  O  O547  1  0.34950000  0.00570000  0.96820000  1
  O  O548  1  0.99750000  0.81070000  0.09120000  1
  O  O549  1  0.78050000  0.09370000  0.59120000  1
  O  O550  1  0.90350000  0.80130000  0.10940000  1
  O  O551  1  0.80810000  0.20590000  0.60940000  1
  O  O552  1  0.01730000  0.00060000  0.12190000  1
  O  O553  1  0.62130000  0.10460000  0.62190000  1
  O  O554  1  0.94440000  0.25680000  0.41520000  1
  O  O555  1  0.65840000  0.47080000  0.91520000  1
  O  O556  1  0.90270000  0.93610000  0.06760000  1
  O  O557  1  0.63150000  0.16490000  0.56760000  1
