# generated using pymatgen
data_Cu11H198C264(N5O9)6
_symmetry_space_group_name_H-M   'P 1'
_cell_length_a   24.40163580
_cell_length_b   24.40163580
_cell_length_c   24.40163580
_cell_angle_alpha   74.67435356
_cell_angle_beta   74.67435356
_cell_angle_gamma   74.67435356
_symmetry_Int_Tables_number   1
_chemical_formula_structural   Cu11H198C264(N5O9)6
_chemical_formula_sum   'Cu11 H198 C264 N30 O54'
_cell_volume   13216.09173390
_cell_formula_units_Z   1
loop_
 _symmetry_equiv_pos_site_id
 _symmetry_equiv_pos_as_xyz
  1  'x, y, z'
loop_
 _atom_site_type_symbol
 _atom_site_label
 _atom_site_symmetry_multiplicity
 _atom_site_fract_x
 _atom_site_fract_y
 _atom_site_fract_z
 _atom_site_occupancy
  C  C0  1  0.12976000  0.27381000  0.98294000  1
  C  C1  1  0.96269000  0.12397000  0.78780000  1
  C  C2  1  0.34422000  0.66068000  0.01255000  1
  C  C3  1  0.93064000  0.79734000  0.04556000  1
  C  C4  1  0.01255000  0.34422000  0.66068000  1
  C  C5  1  0.72621000  0.46261000  0.96837000  1
  C  C6  1  0.67586556  0.18974556  0.13448556  1
  C  C7  1  0.91958000  0.03640000  0.77085000  1
  C  C8  1  0.21769000  0.33516000  0.06784000  1
  C  C9  1  0.33932000  0.98745000  0.65578000  1
  C  C10  1  0.30367000  0.39478000  0.17646000  1
  C  C11  1  0.35702000  0.04004000  0.63346000  1
  C  C12  1  0.08563000  0.95652000  0.17318000  1
  C  C13  1  0.40299000  0.94176000  0.82078000  1
  C  C14  1  0.96769000  0.82317000  0.06824000  1
  C  C15  1  0.37068000  0.63373000  0.05954000  1
  C  C16  1  0.04694000  0.21935000  0.82529000  1
  C  C17  1  0.25179000  0.35603000  0.09714000  1
  C  C18  1  0.06408000  0.91274000  0.16471000  1
  C  C19  1  0.10723000  0.17815000  0.98515000  1
  C  C20  1  0.03180000  0.28300000  0.71450000  1
  C  C21  1  0.14033000  0.20654000  0.00307000  1
  C  C22  1  0.91015000  0.70475000  0.04389000  1
  C  C23  1  0.05846000  0.17303000  0.86897000  1
  C  C24  1  0.41423000  0.98215000  0.76927000  1
  C  C25  1  0.96790000  0.11689000  0.73183000  1
  C  C26  1  0.04004000  0.63346000  0.35702000  1
  C  C27  1  0.94636000  0.07310000  0.72336000  1
  C  C28  1  0.63740000  0.04523000  0.13285000  1
  C  C29  1  0.94568000  0.73295000  0.06113000  1
  C  C30  1  0.05388000  0.41953000  0.58910000  1
  C  C31  1  0.11159000  0.99953000  0.12386000  1
  C  C32  1  0.04574000  0.58458000  0.40164000  1
  C  C33  1  0.71450000  0.03180000  0.28300000  1
  C  C34  1  0.05954000  0.37068000  0.63373000  1
  C  C35  1  0.23093000  0.34042000  0.00449000  1
  C  C36  1  0.20335000  0.32120000  0.96060000  1
  C  C37  1  0.36654000  0.64298000  0.95996000  1
  C  C38  1  0.06992000  0.89550000  0.11389000  1
  C  C39  1  0.12386000  0.11159000  0.99953000  1
  C  C40  1  0.76927000  0.41423000  0.98215000  1
  C  C41  1  0.07181000  0.21932000  0.76997000  1
  C  C42  1  0.36627000  0.94046000  0.62932000  1
  C  C43  1  0.44012000  0.88759000  0.82921000  1
  C  C44  1  0.92547000  0.02354000  0.65545000  1
  C  C45  1  0.40164000  0.04574000  0.58458000  1
  C  C46  1  0.71700000  0.28550000  0.96820000  1
  C  C47  1  0.61299000  0.08115000  0.96270000  1
  C  C48  1  0.41953000  0.58910000  0.05388000  1
  C  C49  1  0.78615000  0.48850000  0.87381000  1
  C  C50  1  0.09495000  0.12444000  0.85446000  1
  C  C51  1  0.01785000  0.23073000  0.58577000  1
  C  C52  1  0.75330000  0.10984000  0.17513000  1
  C  C53  1  0.46261000  0.96837000  0.72621000  1
  C  C54  1  0.96270000  0.61299000  0.08115000  1
  C  C55  1  0.30901000  0.38113000  0.00441000  1
  C  C56  1  0.00047000  0.87614000  0.88841000  1
  C  C57  1  0.28716000  0.36165000  0.96999000  1
  C  C58  1  0.76997000  0.07181000  0.21932000  1
  C  C59  1  0.03163000  0.27379000  0.53739000  1
  C  C60  1  0.11389000  0.06992000  0.89550000  1
  C  C61  1  0.17815000  0.98515000  0.10723000  1
  C  C62  1  0.20654000  0.00307000  0.14033000  1
  C  C63  1  0.41542000  0.59836000  0.95426000  1
  C  C64  1  0.06271000  0.40531000  0.43611000  1
  C  C65  1  0.96999000  0.28716000  0.36165000  1
  C  C66  1  0.10984000  0.17513000  0.75330000  1
  C  C67  1  0.41090000  0.94612000  0.58047000  1
  C  C68  1  0.82078000  0.40299000  0.94176000  1
  C  C69  1  0.12444000  0.85446000  0.09495000  1
  C  C70  1  0.17318000  0.08563000  0.95652000  1
  C  C71  1  0.39478000  0.17646000  0.30367000  1
  C  C72  1  0.40531000  0.43611000  0.06271000  1
  C  C73  1  0.01485000  0.89277000  0.82185000  1
  C  C74  1  0.48850000  0.87381000  0.78615000  1
  C  C75  1  0.00441000  0.30901000  0.38113000  1
  C  C76  1  0.04523000  0.13285000  0.63740000  1
  C  C77  1  0.12377000  0.79651000  0.12540000  1
  C  C78  1  0.12540000  0.12377000  0.79651000  1
  C  C79  1  0.82921000  0.44012000  0.88759000  1
  C  C80  1  0.05824000  0.17922000  0.59701000  1
  C  C81  1  0.99693000  0.85967000  0.79346000  1
  C  C82  1  0.79651000  0.12540000  0.12377000  1
  C  C83  1  0.82354000  0.69633000  0.60522000  1
  C  C84  1  0.06824000  0.96769000  0.82317000  1
  C  C85  1  0.04348000  0.82682000  0.91437000  1
  C  C86  1  0.16471000  0.06408000  0.91274000  1
  C  C87  1  0.65545000  0.92547000  0.02354000  1
  C  C88  1  0.35603000  0.09714000  0.25179000  1
  C  C89  1  0.04556000  0.93064000  0.79734000  1
  C  C90  1  0.73183000  0.96790000  0.11689000  1
  C  C91  1  0.20266000  0.95444000  0.06936000  1
  C  C92  1  0.03640000  0.77085000  0.91958000  1
  C  C93  1  0.82529000  0.04694000  0.21935000  1
  C  C94  1  0.33516000  0.06784000  0.21769000  1
  C  C95  1  0.17683000  0.93176000  0.03231000  1
  C  C96  1  0.10450000  0.88611000  0.93008000  1
  C  C97  1  0.96060000  0.20335000  0.32120000  1
  C  C98  1  0.78068000  0.23003000  0.92819000  1
  C  C99  1  0.08726000  0.83529000  0.93592000  1
  C  C100  1  0.13448556  0.67586556  0.18974556  1
  C  C101  1  0.43611000  0.06271000  0.40531000  1
  C  C102  1  0.91885000  0.03730000  0.38701000  1
  C  C103  1  0.90286000  0.74821000  0.64397000  1
  C  C104  1  0.22915000  0.08042000  0.96360000  1
  C  C105  1  0.86715000  0.36260000  0.95477000  1
  C  C106  1  0.93216000  0.78231000  0.66484000  1
  C  C107  1  0.17303000  0.86897000  0.05846000  1
  C  C108  1  0.72336000  0.94636000  0.07310000  1
  C  C109  1  0.81025556  0.86551556  0.32413556  1
  C  C110  1  0.78065000  0.17471000  0.95306000  1
  C  C111  1  0.27381000  0.98294000  0.12976000  1
  C  C112  1  0.00449000  0.23093000  0.34042000  1
  C  C113  1  0.01706000  0.87024000  0.72619000  1
  C  C114  1  0.06113000  0.94568000  0.73295000  1
  C  C115  1  0.34042000  0.00449000  0.23093000  1
  C  C116  1  0.38113000  0.00441000  0.30901000  1
  C  C117  1  0.70475000  0.04389000  0.91015000  1
  C  C118  1  0.73295000  0.06113000  0.94568000  1
  C  C119  1  0.88311000  0.26817000  0.03210000  1
  C  C120  1  0.36165000  0.96999000  0.28716000  1
  C  C121  1  0.02354000  0.65545000  0.92547000  1
  C  C122  1  0.04389000  0.91015000  0.70475000  1
  C  C123  1  0.87381000  0.78615000  0.48850000  1
  C  C124  1  0.07310000  0.72336000  0.94636000  1
  C  C125  1  0.32120000  0.96060000  0.20335000  1
  C  C126  1  0.17513000  0.75330000  0.10984000  1
  C  C127  1  0.78780000  0.96269000  0.12397000  1
  C  C128  1  0.85446000  0.09495000  0.12444000  1
  C  C129  1  0.13103000  0.94154000  0.82697000  1
  C  C130  1  0.11241000  0.17079000  0.55988000  1
  C  C131  1  0.12397000  0.78780000  0.96269000  1
  C  C132  1  0.87603000  0.21220000  0.03731000  1
  C  C133  1  0.88759000  0.82921000  0.44012000  1
  C  C134  1  0.86897000  0.05846000  0.17303000  1
  C  C135  1  0.14554000  0.90505000  0.87556000  1
  C  C136  1  0.21220000  0.03731000  0.87603000  1
  C  C137  1  0.82487000  0.24670000  0.89016000  1
  C  C138  1  0.67880000  0.03940000  0.79665000  1
  C  C139  1  0.92690000  0.27664000  0.05364000  1
  C  C140  1  0.12619000  0.21385000  0.51150000  1
  C  C141  1  0.95611000  0.08985000  0.29525000  1
  C  C142  1  0.97646000  0.34455000  0.07453000  1
  C  C143  1  0.63835000  0.03001000  0.71284000  1
  C  C144  1  0.11689000  0.73183000  0.96790000  1
  C  C145  1  0.26705000  0.93887000  0.05432000  1
  C  C146  1  0.29525000  0.95611000  0.08985000  1
  C  C147  1  0.61887000  0.99559000  0.69099000  1
  C  C148  1  0.65958000  0.99551000  0.76907000  1
  C  C149  1  0.93887000  0.05432000  0.26705000  1
  C  C150  1  0.98294000  0.12976000  0.27381000  1
  C  C151  1  0.99551000  0.76907000  0.65958000  1
  C  C152  1  0.72619000  0.01706000  0.87024000  1
  C  C153  1  0.21935000  0.82529000  0.04694000  1
  C  C154  1  0.18974556  0.13448556  0.67586556  1
  C  C155  1  0.27664000  0.05364000  0.92690000  1
  C  C156  1  0.82697000  0.13103000  0.94154000  1
  C  C157  1  0.06784000  0.21769000  0.33516000  1
  C  C158  1  0.13285000  0.63740000  0.04523000  1
  C  C159  1  0.77085000  0.91958000  0.03640000  1
  C  C160  1  0.09714000  0.25179000  0.35603000  1
  C  C161  1  0.08115000  0.96270000  0.61299000  1
  C  C162  1  0.56389000  0.93729000  0.59469000  1
  C  C163  1  0.86551556  0.32413556  0.81025556  1
  C  C164  1  0.91274000  0.16471000  0.06408000  1
  C  C165  1  0.21932000  0.76997000  0.07181000  1
  C  C166  1  0.03940000  0.79665000  0.67880000  1
  C  C167  1  0.89550000  0.11389000  0.06992000  1
  C  C168  1  0.82317000  0.06824000  0.96769000  1
  C  C169  1  0.66484000  0.93216000  0.78231000  1
  C  C170  1  0.17471000  0.95306000  0.78065000  1
  C  C171  1  0.96360000  0.22915000  0.08042000  1
  C  C172  1  0.79734000  0.04556000  0.93064000  1
  C  C173  1  0.26817000  0.03210000  0.88311000  1
  C  C174  1  0.95444000  0.06936000  0.20266000  1
  C  C175  1  0.64397000  0.90286000  0.74821000  1
  C  C176  1  0.34455000  0.07453000  0.97646000  1
  C  C177  1  0.83529000  0.93592000  0.08726000  1
  C  C178  1  0.95652000  0.17318000  0.08563000  1
  C  C179  1  0.93176000  0.03231000  0.17683000  1
  C  C180  1  0.17646000  0.30367000  0.39478000  1
  C  C181  1  0.20349000  0.87460000  0.87623000  1
  C  C182  1  0.00307000  0.14033000  0.20654000  1
  C  C183  1  0.94176000  0.82078000  0.40299000  1
  C  C184  1  0.17079000  0.55988000  0.11241000  1
  C  C185  1  0.87460000  0.87623000  0.20349000  1
  C  C186  1  0.87623000  0.20349000  0.87460000  1
  C  C187  1  0.95477000  0.86715000  0.36260000  1
  C  C188  1  0.99559000  0.69099000  0.61887000  1
  C  C189  1  0.51150000  0.12619000  0.21385000  1
  C  C190  1  0.98515000  0.10723000  0.17815000  1
  C  C191  1  0.59469000  0.56389000  0.93729000  1
  C  C192  1  0.60522000  0.82354000  0.69633000  1
  C  C193  1  0.82682000  0.91437000  0.04348000  1
  C  C194  1  0.87556000  0.14554000  0.90505000  1
  C  C195  1  0.17922000  0.59701000  0.05824000  1
  C  C196  1  0.58910000  0.05388000  0.41953000  1
  C  C197  1  0.89016000  0.82487000  0.24670000  1
  C  C198  1  0.03001000  0.71284000  0.63835000  1
  C  C199  1  0.93729000  0.59469000  0.56389000  1
  C  C200  1  0.58458000  0.40164000  0.04574000  1
  C  C201  1  0.79346000  0.99693000  0.85967000  1
  C  C202  1  0.82185000  0.01485000  0.89277000  1
  C  C203  1  0.88611000  0.93008000  0.10450000  1
  C  C204  1  0.96837000  0.72621000  0.46261000  1
  C  C205  1  0.23003000  0.92819000  0.78068000  1
  C  C206  1  0.71284000  0.63835000  0.03001000  1
  C  C207  1  0.99953000  0.12386000  0.11159000  1
  C  C208  1  0.69099000  0.61887000  0.99559000  1
  C  C209  1  0.03730000  0.38701000  0.91885000  1
  C  C210  1  0.53739000  0.03163000  0.27379000  1
  C  C211  1  0.24670000  0.89016000  0.82487000  1
  C  C212  1  0.98215000  0.76927000  0.41423000  1
  C  C213  1  0.90505000  0.87556000  0.14554000  1
  C  C214  1  0.21385000  0.51150000  0.12619000  1
  C  C215  1  0.58047000  0.41090000  0.94612000  1
  C  C216  1  0.38701000  0.91885000  0.03730000  1
  C  C217  1  0.28300000  0.71450000  0.03180000  1
  C  C218  1  0.59836000  0.95426000  0.41542000  1
  C  C219  1  0.07453000  0.97646000  0.34455000  1
  C  C220  1  0.55988000  0.11241000  0.17079000  1
  C  C221  1  0.63373000  0.05954000  0.37068000  1
  C  C222  1  0.92819000  0.78068000  0.23003000  1
  C  C223  1  0.23073000  0.58577000  0.01785000  1
  C  C224  1  0.87614000  0.88841000  0.00047000  1
  C  C225  1  0.93008000  0.10450000  0.88611000  1
  C  C226  1  0.63346000  0.35702000  0.04004000  1
  C  C227  1  0.79665000  0.67880000  0.03940000  1
  C  C228  1  0.76907000  0.65958000  0.99551000  1
  C  C229  1  0.94046000  0.62932000  0.36627000  1
  C  C230  1  0.28550000  0.96820000  0.71700000  1
  C  C231  1  0.95426000  0.41542000  0.59836000  1
  C  C232  1  0.88841000  0.00047000  0.87614000  1
  C  C233  1  0.94612000  0.58047000  0.41090000  1
  C  C234  1  0.05432000  0.26705000  0.93887000  1
  C  C235  1  0.36260000  0.95477000  0.86715000  1
  C  C236  1  0.05364000  0.92690000  0.27664000  1
  C  C237  1  0.95996000  0.36654000  0.64298000  1
  C  C238  1  0.03210000  0.88311000  0.26817000  1
  C  C239  1  0.58577000  0.01785000  0.23073000  1
  C  C240  1  0.94154000  0.82697000  0.13103000  1
  C  C241  1  0.08985000  0.29525000  0.95611000  1
  C  C242  1  0.85967000  0.79346000  0.99693000  1
  C  C243  1  0.96820000  0.71700000  0.28550000  1
  C  C244  1  0.89277000  0.82185000  0.01485000  1
  C  C245  1  0.93592000  0.08726000  0.83529000  1
  C  C246  1  0.74821000  0.64397000  0.90286000  1
  C  C247  1  0.95306000  0.78065000  0.17471000  1
  C  C248  1  0.62932000  0.36627000  0.94046000  1
  C  C249  1  0.03231000  0.17683000  0.93176000  1
  C  C250  1  0.59701000  0.05824000  0.17922000  1
  C  C251  1  0.91437000  0.04348000  0.82682000  1
  C  C252  1  0.64298000  0.95996000  0.36654000  1
  C  C253  1  0.69633000  0.60522000  0.82354000  1
  C  C254  1  0.66068000  0.01255000  0.34422000  1
  C  C255  1  0.78231000  0.66484000  0.93216000  1
  C  C256  1  0.08042000  0.96360000  0.22915000  1
  C  C257  1  0.32413556  0.81025556  0.86551556  1
  C  C258  1  0.27379000  0.53739000  0.03163000  1
  C  C259  1  0.98745000  0.65578000  0.33932000  1
  C  C260  1  0.06936000  0.20266000  0.95444000  1
  C  C261  1  0.65578000  0.33932000  0.98745000  1
  C  C262  1  0.03731000  0.87603000  0.21220000  1
  C  C263  1  0.87024000  0.72619000  0.01706000  1
  Cu  Cu264  1  0.29342667  0.29342667  0.29342667  1
  Cu  Cu265  1  0.70657333  0.70657333  0.70657333  1
  Cu  Cu266  1  1.00000000  0.50000000  0.50000000  1
  Cu  Cu267  1  0.32921000  0.42129000  0.10326000  1
  Cu  Cu268  1  0.42129000  0.10326000  0.32921000  1
  Cu  Cu269  1  0.10326000  0.32921000  0.42129000  1
  Cu  Cu270  1  0.50000000  0.50000000  0.00000000  1
  Cu  Cu271  1  0.50000000  0.00000000  0.50000000  1
  Cu  Cu272  1  0.89674000  0.67079000  0.57871000  1
  Cu  Cu273  1  0.57871000  0.89674000  0.67079000  1
  Cu  Cu274  1  0.67079000  0.57871000  0.89674000  1
  H  H275  1  0.75620000  0.64680000  0.86210000  1
  H  H276  1  0.61120000  0.98080000  0.23650000  1
  H  H277  1  0.97730000  0.15390000  0.79360000  1
  H  H278  1  0.09890000  0.03820000  0.13430000  1
  H  H279  1  0.69210000  0.22200000  0.13560000  1
  H  H280  1  0.64450000  0.35420000  0.90450000  1
  H  H281  1  0.97050000  0.86240000  0.04450000  1
  H  H282  1  0.81380000  0.68220000  0.90920000  1
  H  H283  1  0.90480000  0.00650000  0.76510000  1
  H  H284  1  0.66140000  0.92780000  0.34860000  1
  H  H285  1  0.98010000  0.74680000  0.16520000  1
  H  H286  1  0.88300000  0.03500000  0.66540000  1
  H  H287  1  0.36660000  0.79890000  0.85770000  1
  H  H288  1  0.03690000  0.87730000  0.11810000  1
  H  H289  1  0.08940000  0.09610000  0.00220000  1
  H  H290  1  0.30900000  0.52970000  0.00390000  1
  H  H291  1  0.57140000  0.08340000  0.96700000  1
  H  H292  1  0.09610000  0.00220000  0.08940000  1
  H  H293  1  0.69000000  0.18020000  0.09580000  1
  H  H294  1  0.34860000  0.66140000  0.92780000  1
  H  H295  1  0.98080000  0.23650000  0.61120000  1
  H  H296  1  0.76350000  0.38880000  0.01920000  1
  H  H297  1  0.06650000  0.93070000  0.08250000  1
  H  H298  1  0.16790000  0.18570000  0.02640000  1
  H  H299  1  0.13430000  0.09890000  0.03820000  1
  H  H300  1  0.43240000  0.86000000  0.86440000  1
  H  H301  1  0.00740000  0.79880000  0.06520000  1
  H  H302  1  0.07220000  0.65140000  0.33860000  1
  H  H303  1  0.96180000  0.86570000  0.90110000  1
  H  H304  1  0.35420000  0.90450000  0.64450000  1
  H  H305  1  0.97620000  0.71210000  0.08080000  1
  H  H306  1  0.08600000  0.43770000  0.57070000  1
  H  H307  1  0.62020000  0.12050000  0.95430000  1
  H  H308  1  0.08250000  0.06650000  0.93070000  1
  H  H309  1  0.95430000  0.62020000  0.12050000  1
  H  H310  1  0.00390000  0.30900000  0.52970000  1
  H  H311  1  0.41370000  0.08170000  0.56920000  1
  H  H312  1  0.18570000  0.02640000  0.16790000  1
  H  H313  1  0.08170000  0.56920000  0.41370000  1
  H  H314  1  0.99780000  0.91060000  0.90390000  1
  H  H315  1  0.09550000  0.35550000  0.64580000  1
  H  H316  1  0.62530000  0.05890000  0.99880000  1
  H  H317  1  0.93030000  0.30380000  0.36100000  1
  H  H318  1  0.93820000  0.98490000  0.67860000  1
  H  H319  1  0.43770000  0.57070000  0.08600000  1
  H  H320  1  0.98400000  0.34040000  0.39970000  1
  H  H321  1  0.79200000  0.51390000  0.83680000  1
  H  H322  1  0.93800000  0.02260000  0.61410000  1
  H  H323  1  0.09130000  0.78650000  0.15450000  1
  H  H324  1  0.47030000  0.99610000  0.69100000  1
  H  H325  1  0.04450000  0.97050000  0.86240000  1
  H  H326  1  0.61410000  0.93800000  0.02260000  1
  H  H327  1  0.96700000  0.57140000  0.08340000  1
  H  H328  1  0.06930000  0.91750000  0.93350000  1
  H  H329  1  0.13760000  0.95550000  0.02950000  1
  H  H330  1  0.34040000  0.39970000  0.98400000  1
  H  H331  1  0.97360000  0.83210000  0.81430000  1
  H  H332  1  0.99880000  0.62530000  0.05890000  1
  H  H333  1  0.30380000  0.36100000  0.93030000  1
  H  H334  1  0.86210000  0.75620000  0.64680000  1
  H  H335  1  0.09580000  0.69000000  0.18020000  1
  H  H336  1  0.11810000  0.03690000  0.87730000  1
  H  H337  1  0.90920000  0.81380000  0.68220000  1
  H  H338  1  0.06520000  0.00740000  0.79880000  1
  H  H339  1  0.35320000  0.13790000  0.24380000  1
  H  H340  1  0.78650000  0.15450000  0.09130000  1
  H  H341  1  0.87950000  0.04570000  0.37980000  1
  H  H342  1  0.00650000  0.76510000  0.90480000  1
  H  H343  1  0.74680000  0.16520000  0.98010000  1
  H  H344  1  0.98490000  0.67860000  0.93820000  1
  H  H345  1  0.43080000  0.58630000  0.91830000  1
  H  H346  1  0.13560000  0.69210000  0.22200000  1
  H  H347  1  0.31780000  0.09080000  0.18620000  1
  H  H348  1  0.71210000  0.08080000  0.97620000  1
  H  H349  1  0.83680000  0.79200000  0.51390000  1
  H  H350  1  0.91660000  0.03300000  0.42860000  1
  H  H351  1  0.79890000  0.85770000  0.36660000  1
  H  H352  1  0.23490000  0.09520000  0.99350000  1
  H  H353  1  0.42930000  0.91400000  0.56230000  1
  H  H354  1  0.77800000  0.86440000  0.30790000  1
  H  H355  1  0.83480000  0.01990000  0.25320000  1
  H  H356  1  0.51390000  0.83680000  0.79200000  1
  H  H357  1  0.12270000  0.88190000  0.96310000  1
  H  H358  1  0.66540000  0.88300000  0.03500000  1
  H  H359  1  0.86000000  0.86440000  0.43240000  1
  H  H360  1  0.81980000  0.90420000  0.31000000  1
  H  H361  1  0.15450000  0.09130000  0.78650000  1
  H  H362  1  0.67860000  0.93820000  0.98490000  1
  H  H363  1  0.86440000  0.43240000  0.86000000  1
  H  H364  1  0.14230000  0.63340000  0.20110000  1
  H  H365  1  0.79360000  0.97730000  0.15390000  1
  H  H366  1  0.84610000  0.20640000  0.02270000  1
  H  H367  1  0.08080000  0.97620000  0.71210000  1
  H  H368  1  0.20120000  0.93480000  0.99260000  1
  H  H369  1  0.39970000  0.98400000  0.34040000  1
  H  H370  1  0.96500000  0.33460000  0.11700000  1
  H  H371  1  0.36100000  0.93030000  0.30380000  1
  H  H372  1  0.02260000  0.61410000  0.93800000  1
  H  H373  1  0.05890000  0.99880000  0.62530000  1
  H  H374  1  0.94110000  0.00120000  0.37470000  1
  H  H375  1  0.97740000  0.38590000  0.06200000  1
  H  H376  1  0.63900000  0.06970000  0.69620000  1
  H  H377  1  0.03500000  0.66540000  0.88300000  1
  H  H378  1  0.79880000  0.06520000  0.00740000  1
  H  H379  1  0.60030000  0.01600000  0.65960000  1
  H  H380  1  0.91920000  0.02380000  0.28790000  1
  H  H381  1  0.15390000  0.79360000  0.97730000  1
  H  H382  1  0.20640000  0.02270000  0.84610000  1
  H  H383  1  0.85770000  0.36660000  0.79890000  1
  H  H384  1  0.13560000  0.56760000  0.14000000  1
  H  H385  1  0.32140000  0.06180000  0.01510000  1
  H  H386  1  0.84550000  0.90870000  0.21350000  1
  H  H387  1  0.18020000  0.09580000  0.69000000  1
  H  H388  1  0.14000000  0.13560000  0.56760000  1
  H  H389  1  0.33460000  0.11700000  0.96500000  1
  H  H390  1  0.87730000  0.11810000  0.03690000  1
  H  H391  1  0.48610000  0.16320000  0.20800000  1
  H  H392  1  0.16520000  0.98010000  0.74680000  1
  H  H393  1  0.22200000  0.13560000  0.69210000  1
  H  H394  1  0.57070000  0.08600000  0.43770000  1
  H  H395  1  0.76510000  0.90480000  0.00650000  1
  H  H396  1  0.20110000  0.14230000  0.63340000  1
  H  H397  1  0.08340000  0.96700000  0.57140000  1
  H  H398  1  0.16320000  0.20800000  0.48610000  1
  H  H399  1  0.28790000  0.91920000  0.02380000  1
  H  H400  1  0.68220000  0.90920000  0.81380000  1
  H  H401  1  0.86440000  0.30790000  0.77800000  1
  H  H402  1  0.56920000  0.41370000  0.08170000  1
  H  H403  1  0.01510000  0.32140000  0.06180000  1
  H  H404  1  0.25320000  0.83480000  0.01990000  1
  H  H405  1  0.99350000  0.23490000  0.09520000  1
  H  H406  1  0.12050000  0.95430000  0.62020000  1
  H  H407  1  0.21350000  0.84550000  0.90870000  1
  H  H408  1  0.64680000  0.86210000  0.75620000  1
  H  H409  1  0.93480000  0.99260000  0.20120000  1
  H  H410  1  0.09080000  0.18620000  0.31780000  1
  H  H411  1  0.88190000  0.96310000  0.12270000  1
  H  H412  1  0.90420000  0.31000000  0.81980000  1
  H  H413  1  0.13790000  0.24380000  0.35320000  1
  H  H414  1  0.69620000  0.63900000  0.06970000  1
  H  H415  1  0.00120000  0.37470000  0.94110000  1
  H  H416  1  0.02640000  0.16790000  0.18570000  1
  H  H417  1  0.65960000  0.60030000  0.01600000  1
  H  H418  1  0.86240000  0.04450000  0.97050000  1
  H  H419  1  0.93070000  0.08250000  0.06650000  1
  H  H420  1  0.03300000  0.42860000  0.91660000  1
  H  H421  1  0.38590000  0.06200000  0.97740000  1
  H  H422  1  0.95550000  0.02950000  0.13760000  1
  H  H423  1  0.52970000  0.00390000  0.30900000  1
  H  H424  1  0.90870000  0.21350000  0.84550000  1
  H  H425  1  0.06200000  0.97740000  0.38590000  1
  H  H426  1  0.20800000  0.48610000  0.16320000  1
  H  H427  1  0.01600000  0.65960000  0.60030000  1
  H  H428  1  0.56230000  0.42930000  0.91400000  1
  H  H429  1  0.06180000  0.01510000  0.32140000  1
  H  H430  1  0.06970000  0.69620000  0.63900000  1
  H  H431  1  0.37470000  0.94110000  0.00120000  1
  H  H432  1  0.90450000  0.64450000  0.35420000  1
  H  H433  1  0.00220000  0.08940000  0.09610000  1
  H  H434  1  0.91830000  0.43080000  0.58630000  1
  H  H435  1  0.81430000  0.97360000  0.83210000  1
  H  H436  1  0.58630000  0.91830000  0.43080000  1
  H  H437  1  0.99610000  0.69100000  0.47030000  1
  H  H438  1  0.04570000  0.37980000  0.87950000  1
  H  H439  1  0.91750000  0.93350000  0.06930000  1
  H  H440  1  0.37980000  0.87950000  0.04570000  1
  H  H441  1  0.91400000  0.56230000  0.42930000  1
  H  H442  1  0.02380000  0.28790000  0.91920000  1
  H  H443  1  0.64580000  0.09550000  0.35550000  1
  H  H444  1  0.03820000  0.13430000  0.09890000  1
  H  H445  1  0.92780000  0.34860000  0.66140000  1
  H  H446  1  0.99260000  0.20120000  0.93480000  1
  H  H447  1  0.56760000  0.14000000  0.13560000  1
  H  H448  1  0.86570000  0.90110000  0.96180000  1
  H  H449  1  0.83210000  0.81430000  0.97360000  1
  H  H450  1  0.93350000  0.06930000  0.91750000  1
  H  H451  1  0.23650000  0.61120000  0.98080000  1
  H  H452  1  0.01920000  0.76350000  0.38880000  1
  H  H453  1  0.65140000  0.33860000  0.07220000  1
  H  H454  1  0.31000000  0.81980000  0.90420000  1
  H  H455  1  0.90390000  0.99780000  0.91060000  1
  H  H456  1  0.42860000  0.91660000  0.03300000  1
  H  H457  1  0.69100000  0.47030000  0.99610000  1
  H  H458  1  0.91060000  0.90390000  0.99780000  1
  H  H459  1  0.96310000  0.12270000  0.88190000  1
  H  H460  1  0.63340000  0.20110000  0.14230000  1
  H  H461  1  0.11700000  0.96500000  0.33460000  1
  H  H462  1  0.01990000  0.25320000  0.83480000  1
  H  H463  1  0.33860000  0.07220000  0.65140000  1
  H  H464  1  0.09520000  0.99350000  0.23490000  1
  H  H465  1  0.18620000  0.31780000  0.09080000  1
  H  H466  1  0.02950000  0.13760000  0.95550000  1
  H  H467  1  0.35550000  0.64580000  0.09550000  1
  H  H468  1  0.30790000  0.77800000  0.86440000  1
  H  H469  1  0.90110000  0.96180000  0.86570000  1
  H  H470  1  0.02270000  0.84610000  0.20640000  1
  H  H471  1  0.38880000  0.01920000  0.76350000  1
  H  H472  1  0.24380000  0.35320000  0.13790000  1
  N  N473  1  0.99876000  0.55811000  0.42859000  1
  N  N474  1  0.29937000  0.35537000  0.22227000  1
  N  N475  1  0.73464000  0.49973000  0.91421000  1
  N  N476  1  0.29629000  0.37979000  0.05909000  1
  N  N477  1  0.04152000  0.44442000  0.45422000  1
  N  N478  1  0.35537000  0.22227000  0.29937000  1
  N  N479  1  0.77773000  0.70063000  0.64463000  1
  N  N480  1  0.42859000  0.99876000  0.55811000  1
  N  N481  1  0.44189000  0.57141000  0.00124000  1
  N  N482  1  0.49973000  0.91421000  0.73464000  1
  N  N483  1  0.44442000  0.45422000  0.04152000  1
  N  N484  1  0.37979000  0.05909000  0.29629000  1
  N  N485  1  0.08579000  0.26536000  0.50027000  1
  N  N486  1  0.45422000  0.04152000  0.44442000  1
  N  N487  1  0.05909000  0.29629000  0.37979000  1
  N  N488  1  0.94091000  0.70371000  0.62021000  1
  N  N489  1  0.54578000  0.95848000  0.55558000  1
  N  N490  1  0.91421000  0.73464000  0.49973000  1
  N  N491  1  0.62021000  0.94091000  0.70371000  1
  N  N492  1  0.55558000  0.54578000  0.95848000  1
  N  N493  1  0.50027000  0.08579000  0.26536000  1
  N  N494  1  0.55811000  0.42859000  0.99876000  1
  N  N495  1  0.57141000  0.00124000  0.44189000  1
  N  N496  1  0.22227000  0.29937000  0.35537000  1
  N  N497  1  0.64463000  0.77773000  0.70063000  1
  N  N498  1  0.95848000  0.55558000  0.54578000  1
  N  N499  1  0.70371000  0.62021000  0.94091000  1
  N  N500  1  0.26536000  0.50027000  0.08579000  1
  N  N501  1  0.70063000  0.64463000  0.77773000  1
  N  N502  1  0.00124000  0.44189000  0.57141000  1
  O  O503  1  0.15941000  0.29871000  0.00681000  1
  O  O504  1  0.01770000  0.73560000  0.27200000  1
  O  O505  1  0.69435000  0.13808000  0.17911000  1
  O  O506  1  0.72400000  0.06850000  0.27670000  1
  O  O507  1  0.06850000  0.27670000  0.72400000  1
  O  O508  1  0.92013000  0.64233000  0.05553000  1
  O  O509  1  0.66139000  0.07365000  0.09175000  1
  O  O510  1  0.99167000  0.15208000  0.67251000  1
  O  O511  1  0.95038000  0.06418000  0.66748000  1
  O  O512  1  0.73560000  0.27200000  0.01770000  1
  O  O513  1  0.67251000  0.99167000  0.15208000  1
  O  O514  1  0.72800000  0.98230000  0.26440000  1
  O  O515  1  0.22541000  0.30901000  0.91941000  1
  O  O516  1  0.72330000  0.27600000  0.93150000  1
  O  O517  1  0.91941000  0.22541000  0.30901000  1
  O  O518  1  0.64233000  0.05553000  0.92013000  1
  O  O519  1  0.66748000  0.95038000  0.06418000  1
  O  O520  1  0.84792000  0.32749000  0.00833000  1
  O  O521  1  0.07365000  0.09175000  0.66139000  1
  O  O522  1  0.13808000  0.17911000  0.69435000  1
  O  O523  1  0.29871000  0.00681000  0.15941000  1
  O  O524  1  0.99319000  0.84059000  0.70129000  1
  O  O525  1  0.09175000  0.66139000  0.07365000  1
  O  O526  1  0.94447000  0.07987000  0.35767000  1
  O  O527  1  0.30901000  0.91941000  0.22541000  1
  O  O528  1  0.82089000  0.30565000  0.86192000  1
  O  O529  1  0.93582000  0.33252000  0.04962000  1
  O  O530  1  0.06418000  0.66748000  0.95038000  1
  O  O531  1  0.17911000  0.69435000  0.13808000  1
  O  O532  1  0.69099000  0.08059000  0.77459000  1
  O  O533  1  0.05553000  0.92013000  0.64233000  1
  O  O534  1  0.90825000  0.33861000  0.92635000  1
  O  O535  1  0.00681000  0.15941000  0.29871000  1
  O  O536  1  0.70129000  0.99319000  0.84059000  1
  O  O537  1  0.86192000  0.82089000  0.30565000  1
  O  O538  1  0.92635000  0.90825000  0.33861000  1
  O  O539  1  0.15208000  0.67251000  0.99167000  1
  O  O540  1  0.33252000  0.04962000  0.93582000  1
  O  O541  1  0.35767000  0.94447000  0.07987000  1
  O  O542  1  0.08059000  0.77459000  0.69099000  1
  O  O543  1  0.27670000  0.72400000  0.06850000  1
  O  O544  1  0.77459000  0.69099000  0.08059000  1
  O  O545  1  0.27200000  0.01770000  0.73560000  1
  O  O546  1  0.32749000  0.00833000  0.84792000  1
  O  O547  1  0.26440000  0.72800000  0.98230000  1
  O  O548  1  0.04962000  0.93582000  0.33252000  1
  O  O549  1  0.00833000  0.84792000  0.32749000  1
  O  O550  1  0.33861000  0.92635000  0.90825000  1
  O  O551  1  0.07987000  0.35767000  0.94447000  1
  O  O552  1  0.93150000  0.72330000  0.27600000  1
  O  O553  1  0.27600000  0.93150000  0.72330000  1
  O  O554  1  0.30565000  0.86192000  0.82089000  1
  O  O555  1  0.98230000  0.26440000  0.72800000  1
  O  O556  1  0.84059000  0.70129000  0.99319000  1
