# generated using pymatgen
data_Ba2H18C32O19
_symmetry_space_group_name_H-M   'P 1'
_cell_length_a   10.27240000
_cell_length_b   13.31260000
_cell_length_c   15.29490000
_cell_angle_alpha   100.30700000
_cell_angle_beta   107.57200000
_cell_angle_gamma   100.41400000
_symmetry_Int_Tables_number   1
_chemical_formula_structural   Ba2H18C32O19
_chemical_formula_sum   'Ba4 H36 C64 O38'
_cell_volume   1899.38598663
_cell_formula_units_Z   2
loop_
 _symmetry_equiv_pos_site_id
 _symmetry_equiv_pos_as_xyz
  1  'x, y, z'
loop_
 _atom_site_type_symbol
 _atom_site_label
 _atom_site_symmetry_multiplicity
 _atom_site_fract_x
 _atom_site_fract_y
 _atom_site_fract_z
 _atom_site_occupancy
  Ba  Ba0  1  0.08678000  0.92475000  0.89034000  1
  Ba  Ba1  1  0.47357000  0.17964000  0.01184000  1
  Ba  Ba2  1  0.52643000  0.82036000  0.98816000  1
  Ba  Ba3  1  0.91322000  0.07525000  0.10966000  1
  H  H4  1  0.01650000  0.79710000  0.27020000  1
  H  H5  1  0.05390000  0.14610000  0.36620000  1
  H  H6  1  0.11040000  0.51030000  0.32640000  1
  H  H7  1  0.13200000  0.17400000  0.93600000  1
  H  H8  1  0.15050000  0.00800000  0.52250000  1
  H  H9  1  0.17420000  0.70800000  0.50930000  1
  H  H10  1  0.17900000  0.17100000  0.02650000  1
  H  H11  1  0.20770000  0.53230000  0.59090000  1
  H  H12  1  0.22470000  0.98240000  0.24950000  1
  H  H13  1  0.24080000  0.23770000  0.59310000  1
  H  H14  1  0.25670000  0.73560000  0.75980000  1
  H  H15  1  0.30970000  0.11190000  0.75880000  1
  H  H16  1  0.31580000  0.44700000  0.83770000  1
  H  H17  1  0.34470000  0.03180000  0.41010000  1
  H  H18  1  0.37580000  0.63290000  0.50740000  1
  H  H19  1  0.41490000  0.90790000  0.53030000  1
  H  H20  1  0.44840000  0.70020000  0.66810000  1
  H  H21  1  0.46050000  0.39230000  0.56490000  1
  H  H22  1  0.53950000  0.60770000  0.43510000  1
  H  H23  1  0.55160000  0.29980000  0.33190000  1
  H  H24  1  0.58510000  0.09210000  0.46970000  1
  H  H25  1  0.62420000  0.36710000  0.49260000  1
  H  H26  1  0.65530000  0.96820000  0.58990000  1
  H  H27  1  0.68420000  0.55300000  0.16230000  1
  H  H28  1  0.69030000  0.88810000  0.24120000  1
  H  H29  1  0.74330000  0.26440000  0.24020000  1
  H  H30  1  0.75920000  0.76230000  0.40690000  1
  H  H31  1  0.77530000  0.01760000  0.75050000  1
  H  H32  1  0.79230000  0.46770000  0.40910000  1
  H  H33  1  0.82100000  0.82900000  0.97350000  1
  H  H34  1  0.82580000  0.29200000  0.49070000  1
  H  H35  1  0.84950000  0.99200000  0.47750000  1
  H  H36  1  0.86800000  0.82600000  0.06400000  1
  H  H37  1  0.88960000  0.48970000  0.67360000  1
  H  H38  1  0.94610000  0.85390000  0.63380000  1
  H  H39  1  0.98350000  0.20290000  0.72980000  1
  C  C40  1  0.03650000  0.99740000  0.33740000  1
  C  C41  1  0.05540000  0.81350000  0.33590000  1
  C  C42  1  0.07460000  0.91530000  0.38850000  1
  C  C43  1  0.07620000  0.63020000  0.32080000  1
  C  C44  1  0.09280000  0.29800000  0.29190000  1
  C  C45  1  0.09390000  0.73650000  0.38110000  1
  C  C46  1  0.13560000  0.94000000  0.48680000  1
  C  C47  1  0.15120000  0.76020000  0.47880000  1
  C  C48  1  0.17410000  0.86180000  0.53080000  1
  C  C49  1  0.22270000  0.38200000  0.57840000  1
  C  C50  1  0.22780000  0.48210000  0.62460000  1
  C  C51  1  0.24630000  0.31150000  0.34670000  1
  C  C52  1  0.24720000  0.30530000  0.62600000  1
  C  C53  1  0.26370000  0.50680000  0.72270000  1
  C  C54  1  0.27870000  0.61530000  0.77720000  1
  C  C55  1  0.28140000  0.32950000  0.72360000  1
  C  C56  1  0.29100000  0.43030000  0.77210000  1
  C  C57  1  0.29120000  0.34570000  0.44410000  1
  C  C58  1  0.30330000  0.24720000  0.19850000  1
  C  C59  1  0.30620000  0.24940000  0.77840000  1
  C  C60  1  0.31030000  0.98500000  0.10590000  1
  C  C61  1  0.32250000  0.00620000  0.27230000  1
  C  C62  1  0.34550000  0.29270000  0.30330000  1
  C  C63  1  0.36770000  0.95060000  0.81680000  1
  C  C64  1  0.38820000  0.92410000  0.65810000  1
  C  C65  1  0.39430000  0.01150000  0.20960000  1
  C  C66  1  0.39480000  0.03600000  0.36880000  1
  C  C67  1  0.43190000  0.36740000  0.49950000  1
  C  C68  1  0.45830000  0.95370000  0.75500000  1
  C  C69  1  0.46240000  0.92870000  0.59540000  1
  C  C70  1  0.47100000  0.64850000  0.54370000  1
  C  C71  1  0.48540000  0.31280000  0.35980000  1
  C  C72  1  0.51460000  0.68720000  0.64020000  1
  C  C73  1  0.52900000  0.35150000  0.45630000  1
  C  C74  1  0.53760000  0.07130000  0.40460000  1
  C  C75  1  0.54170000  0.04630000  0.24500000  1
  C  C76  1  0.56810000  0.63260000  0.50050000  1
  C  C77  1  0.60520000  0.96400000  0.63120000  1
  C  C78  1  0.60570000  0.98850000  0.79040000  1
  C  C79  1  0.61180000  0.07590000  0.34190000  1
  C  C80  1  0.63230000  0.04940000  0.18320000  1
  C  C81  1  0.65450000  0.70730000  0.69670000  1
  C  C82  1  0.67750000  0.99380000  0.72770000  1
  C  C83  1  0.68970000  0.01500000  0.89410000  1
  C  C84  1  0.69380000  0.75060000  0.22160000  1
  C  C85  1  0.69670000  0.75280000  0.80150000  1
  C  C86  1  0.70880000  0.65430000  0.55590000  1
  C  C87  1  0.70900000  0.56970000  0.22790000  1
  C  C88  1  0.71860000  0.67050000  0.27640000  1
  C  C89  1  0.72130000  0.38470000  0.22280000  1
  C  C90  1  0.73630000  0.49320000  0.27730000  1
  C  C91  1  0.75280000  0.69470000  0.37400000  1
  C  C92  1  0.75370000  0.68850000  0.65330000  1
  C  C93  1  0.77220000  0.51790000  0.37540000  1
  C  C94  1  0.77730000  0.61800000  0.42160000  1
  C  C95  1  0.82590000  0.13820000  0.46920000  1
  C  C96  1  0.84880000  0.23980000  0.52120000  1
  C  C97  1  0.86440000  0.06000000  0.51320000  1
  C  C98  1  0.90610000  0.26350000  0.61890000  1
  C  C99  1  0.90720000  0.70200000  0.70810000  1
  C  C100  1  0.92380000  0.36980000  0.67920000  1
  C  C101  1  0.92540000  0.08470000  0.61150000  1
  C  C102  1  0.94460000  0.18650000  0.66410000  1
  C  C103  1  0.96350000  0.00260000  0.66260000  1
  O  O104  1  0.00550000  0.21380000  0.28420000  1
  O  O105  1  0.02040000  0.02560000  0.74740000  1
  O  O106  1  0.03410000  0.61060000  0.23520000  1
  O  O107  1  0.05980000  0.37260000  0.25890000  1
  O  O108  1  0.07340000  0.09230000  0.39170000  1
  O  O109  1  0.11130000  0.56140000  0.36900000  1
  O  O110  1  0.17370000  0.14020000  0.97150000  1
  O  O111  1  0.17460000  0.20590000  0.15160000  1
  O  O112  1  0.17800000  0.96720000  0.08300000  1
  O  O113  1  0.18590000  0.36040000  0.48010000  1
  O  O114  1  0.24200000  0.67740000  0.72030000  1
  O  O115  1  0.24240000  0.88810000  0.62870000  1
  O  O116  1  0.29580000  0.15650000  0.72580000  1
  O  O117  1  0.32050000  0.64170000  0.86250000  1
  O  O118  1  0.32770000  0.03200000  0.83980000  1
  O  O119  1  0.32970000  0.86750000  0.84020000  1
  O  O120  1  0.33590000  0.26910000  0.86380000  1
  O  O121  1  0.37490000  0.98420000  0.04730000  1
  O  O122  1  0.39840000  0.25290000  0.16350000  1
  O  O123  1  0.60160000  0.74710000  0.83650000  1
  O  O124  1  0.62510000  0.01580000  0.95270000  1
  O  O125  1  0.66410000  0.73090000  0.13620000  1
  O  O126  1  0.67030000  0.13250000  0.15980000  1
  O  O127  1  0.67230000  0.96800000  0.16020000  1
  O  O128  1  0.67950000  0.35830000  0.13750000  1
  O  O129  1  0.70420000  0.84350000  0.27420000  1
  O  O130  1  0.75760000  0.11190000  0.37130000  1
  O  O131  1  0.75800000  0.32260000  0.27970000  1
  O  O132  1  0.81410000  0.63960000  0.51990000  1
  O  O133  1  0.82200000  0.03280000  0.91700000  1
  O  O134  1  0.82540000  0.79410000  0.84840000  1
  O  O135  1  0.82630000  0.85980000  0.02850000  1
  O  O136  1  0.88870000  0.43860000  0.63100000  1
  O  O137  1  0.92660000  0.90770000  0.60830000  1
  O  O138  1  0.94020000  0.62740000  0.74110000  1
  O  O139  1  0.96590000  0.38940000  0.76480000  1
  O  O140  1  0.97960000  0.97440000  0.25260000  1
  O  O141  1  0.99450000  0.78620000  0.71580000  1
