# generated using pymatgen
data_Cd3H48C64(NO3)4
_symmetry_space_group_name_H-M   'P 1'
_cell_length_a   13.96800000
_cell_length_b   14.61100000
_cell_length_c   20.56600000
_cell_angle_alpha   75.25000000
_cell_angle_beta   85.51000000
_cell_angle_gamma   69.00000000
_symmetry_Int_Tables_number   1
_chemical_formula_structural   Cd3H48C64(NO3)4
_chemical_formula_sum   'Cd6 H96 C128 N8 O24'
_cell_volume   3788.94339285
_cell_formula_units_Z   2
loop_
 _symmetry_equiv_pos_site_id
 _symmetry_equiv_pos_as_xyz
  1  'x, y, z'
loop_
 _atom_site_type_symbol
 _atom_site_label
 _atom_site_symmetry_multiplicity
 _atom_site_fract_x
 _atom_site_fract_y
 _atom_site_fract_z
 _atom_site_occupancy
  Cd  Cd0  1  0.00000000  0.50000000  0.50000000  1
  Cd  Cd1  1  0.00972000  0.23957000  0.55974000  1
  Cd  Cd2  1  0.47019000  0.26607000  0.95945000  1
  Cd  Cd3  1  0.50000000  0.00000000  0.00000000  1
  Cd  Cd4  1  0.52981000  0.73393000  0.04055000  1
  Cd  Cd5  1  0.99028000  0.76043000  0.44026000  1
  H  H6  1  0.02630000  0.71000000  0.94600000  1
  H  H7  1  0.03360000  0.29110000  0.36540000  1
  H  H8  1  0.03430000  0.95000000  0.67460000  1
  H  H9  1  0.04740000  0.10320000  0.31620000  1
  H  H10  1  0.05980000  0.67580000  0.22470000  1
  H  H11  1  0.06890000  0.80740000  0.76980000  1
  H  H12  1  0.07180000  0.07130000  0.95580000  1
  H  H13  1  0.08350000  0.93750000  0.22770000  1
  H  H14  1  0.08670000  0.73800000  0.72010000  1
  H  H15  1  0.09240000  0.84870000  0.88010000  1
  H  H16  1  0.10350000  0.69680000  0.11350000  1
  H  H17  1  0.10950000  0.23010000  0.42650000  1
  H  H18  1  0.11500000  0.18480000  0.36430000  1
  H  H19  1  0.12970000  0.95930000  0.11650000  1
  H  H20  1  0.13230000  0.30850000  0.04090000  1
  H  H21  1  0.15260000  0.88800000  0.40670000  1
  H  H22  1  0.17430000  0.98110000  0.60470000  1
  H  H23  1  0.21040000  0.84580000  0.72900000  1
  H  H24  1  0.21330000  0.48760000  0.00920000  1
  H  H25  1  0.22710000  0.09210000  0.94100000  1
  H  H26  1  0.22850000  0.77530000  0.68000000  1
  H  H27  1  0.23680000  0.89000000  0.85360000  1
  H  H28  1  0.23910000  0.63290000  0.43270000  1
  H  H29  1  0.24550000  0.70800000  0.82050000  1
  H  H30  1  0.24610000  0.40900000  0.46250000  1
  H  H31  1  0.24770000  0.53400000  0.10080000  1
  H  H32  1  0.25850000  0.63610000  0.77290000  1
  H  H33  1  0.26150000  0.97220000  0.41450000  1
  H  H34  1  0.26570000  0.77680000  0.33570000  1
  H  H35  1  0.27220000  0.62140000  0.62450000  1
  H  H36  1  0.27360000  0.01680000  0.51340000  1
  H  H37  1  0.28090000  0.86970000  0.04730000  1
  H  H38  1  0.29870000  0.51050000  0.91130000  1
  H  H39  1  0.31500000  0.79350000  0.22680000  1
  H  H40  1  0.35650000  0.62390000  0.09400000  1
  H  H41  1  0.37800000  0.15240000  0.60180000  1
  H  H42  1  0.37840000  0.30700000  0.09940000  1
  H  H43  1  0.38890000  0.74290000  0.77360000  1
  H  H44  1  0.40200000  0.43060000  0.44360000  1
  H  H45  1  0.40230000  0.66940000  0.72730000  1
  H  H46  1  0.41130000  0.41790000  0.71610000  1
  H  H47  1  0.41620000  0.66200000  0.59880000  1
  H  H48  1  0.41630000  0.32190000  0.16440000  1
  H  H49  1  0.43350000  0.53340000  0.82760000  1
  H  H50  1  0.45830000  0.42710000  0.60510000  1
  H  H51  1  0.46640000  0.82290000  0.41580000  1
  H  H52  1  0.47060000  0.22100000  0.14180000  1
  H  H53  1  0.47970000  0.42000000  0.18890000  1
  H  H54  1  0.52030000  0.58000000  0.81110000  1
  H  H55  1  0.52940000  0.77900000  0.85820000  1
  H  H56  1  0.53360000  0.17710000  0.58420000  1
  H  H57  1  0.54170000  0.57290000  0.39490000  1
  H  H58  1  0.56650000  0.46660000  0.17240000  1
  H  H59  1  0.58370000  0.67810000  0.83560000  1
  H  H60  1  0.58380000  0.33800000  0.40120000  1
  H  H61  1  0.58870000  0.58210000  0.28390000  1
  H  H62  1  0.59770000  0.33060000  0.27270000  1
  H  H63  1  0.59800000  0.56940000  0.55640000  1
  H  H64  1  0.61110000  0.25710000  0.22640000  1
  H  H65  1  0.62160000  0.69300000  0.90060000  1
  H  H66  1  0.62200000  0.84760000  0.39820000  1
  H  H67  1  0.64350000  0.37610000  0.90600000  1
  H  H68  1  0.68500000  0.20650000  0.77320000  1
  H  H69  1  0.70130000  0.48950000  0.08870000  1
  H  H70  1  0.71910000  0.13030000  0.95270000  1
  H  H71  1  0.72640000  0.98320000  0.48660000  1
  H  H72  1  0.72780000  0.37860000  0.37550000  1
  H  H73  1  0.73430000  0.22320000  0.66430000  1
  H  H74  1  0.73850000  0.02780000  0.58550000  1
  H  H75  1  0.74150000  0.36390000  0.22710000  1
  H  H76  1  0.75230000  0.46600000  0.89920000  1
  H  H77  1  0.75390000  0.59100000  0.53750000  1
  H  H78  1  0.75450000  0.29200000  0.17950000  1
  H  H79  1  0.76090000  0.36710000  0.56730000  1
  H  H80  1  0.76320000  0.11000000  0.14640000  1
  H  H81  1  0.77150000  0.22470000  0.32000000  1
  H  H82  1  0.77290000  0.90790000  0.05900000  1
  H  H83  1  0.78670000  0.51240000  0.99080000  1
  H  H84  1  0.78960000  0.15420000  0.27100000  1
  H  H85  1  0.82570000  0.01890000  0.39530000  1
  H  H86  1  0.84740000  0.11200000  0.59330000  1
  H  H87  1  0.86770000  0.69150000  0.95910000  1
  H  H88  1  0.87030000  0.04070000  0.88350000  1
  H  H89  1  0.88500000  0.81520000  0.63570000  1
  H  H90  1  0.89050000  0.76990000  0.57350000  1
  H  H91  1  0.89650000  0.30320000  0.88650000  1
  H  H92  1  0.90760000  0.15130000  0.11990000  1
  H  H93  1  0.91330000  0.26200000  0.27990000  1
  H  H94  1  0.91650000  0.06250000  0.77230000  1
  H  H95  1  0.92820000  0.92870000  0.04420000  1
  H  H96  1  0.93110000  0.19260000  0.23020000  1
  H  H97  1  0.94020000  0.32420000  0.77530000  1
  H  H98  1  0.95260000  0.89680000  0.68380000  1
  H  H99  1  0.96570000  0.05000000  0.32540000  1
  H  H100  1  0.96640000  0.70890000  0.63460000  1
  H  H101  1  0.97370000  0.29000000  0.05400000  1
  C  C102  1  0.00350000  0.82320000  0.57590000  1
  C  C103  1  0.00490000  0.17710000  0.00740000  1
  C  C104  1  0.02370000  0.88840000  0.67330000  1
  C  C105  1  0.02500000  0.24890000  0.03170000  1
  C  C106  1  0.04000000  0.78880000  0.31080000  1
  C  C107  1  0.06720000  0.80460000  0.23830000  1
  C  C108  1  0.07000000  0.22480000  0.39230000  1
  C  C109  1  0.07370000  0.73360000  0.20270000  1
  C  C110  1  0.08300000  0.11950000  0.97320000  1
  C  C111  1  0.08780000  0.88850000  0.20510000  1
  C  C112  1  0.09390000  0.79930000  0.72550000  1
  C  C113  1  0.09410000  0.83990000  0.97940000  1
  C  C114  1  0.10000000  0.74570000  0.13590000  1
  C  C115  1  0.10200000  0.87970000  0.50190000  1
  C  C116  1  0.10610000  0.90670000  0.56170000  1
  C  C117  1  0.11510000  0.90180000  0.13810000  1
  C  C118  1  0.12030000  0.26080000  0.02340000  1
  C  C119  1  0.12100000  0.83090000  0.10250000  1
  C  C120  1  0.12880000  0.85460000  0.91380000  1
  C  C121  1  0.15140000  0.84620000  0.03060000  1
  C  C122  1  0.15480000  0.58320000  0.54750000  1
  C  C123  1  0.15810000  0.90500000  0.44650000  1
  C  C124  1  0.17110000  0.96100000  0.56580000  1
  C  C125  1  0.17620000  0.13180000  0.96440000  1
  C  C126  1  0.19590000  0.20240000  0.98970000  1
  C  C127  1  0.19670000  0.26090000  0.54620000  1
  C  C128  1  0.20270000  0.78460000  0.72390000  1
  C  C129  1  0.21600000  0.87780000  0.89800000  1
  C  C130  1  0.22230000  0.95580000  0.45120000  1
  C  C131  1  0.22920000  0.98320000  0.51090000  1
  C  C132  1  0.24180000  0.86690000  0.01370000  1
  C  C133  1  0.24420000  0.61840000  0.53070000  1
  C  C134  1  0.26120000  0.51920000  0.00530000  1
  C  C135  1  0.26840000  0.69710000  0.77640000  1
  C  C136  1  0.27350000  0.88310000  0.94830000  1
  C  C137  1  0.27680000  0.63690000  0.46650000  1
  C  C138  1  0.28040000  0.54960000  0.06050000  1
  C  C139  1  0.29550000  0.63030000  0.58060000  1
  C  C140  1  0.29620000  0.27840000  0.53460000  1
  C  C141  1  0.29790000  0.21550000  0.97880000  1
  C  C142  1  0.30380000  0.36220000  0.48700000  1
  C  C143  1  0.30960000  0.53420000  0.94700000  1
  C  C144  1  0.33160000  0.73860000  0.32540000  1
  C  C145  1  0.34570000  0.60150000  0.05770000  1
  C  C146  1  0.36070000  0.74760000  0.26050000  1
  C  C147  1  0.36480000  0.66170000  0.44890000  1
  C  C148  1  0.37080000  0.90920000  0.93140000  1
  C  C149  1  0.37630000  0.58640000  0.94170000  1
  C  C150  1  0.37970000  0.68110000  0.77120000  1
  C  C151  1  0.38110000  0.65560000  0.56460000  1
  C  C152  1  0.38240000  0.20920000  0.57050000  1
  C  C153  1  0.39340000  0.61780000  0.99790000  1
  C  C154  1  0.39690000  0.37540000  0.47630000  1
  C  C155  1  0.39990000  0.67220000  0.37710000  1
  C  C156  1  0.41790000  0.67220000  0.49950000  1
  C  C157  1  0.43740000  0.29280000  0.12640000  1
  C  C158  1  0.44940000  0.59370000  0.82460000  1
  C  C159  1  0.45870000  0.68930000  0.24310000  1
  C  C160  1  0.47560000  0.22400000  0.55990000  1
  C  C161  1  0.47600000  0.37690000  0.70600000  1
  C  C162  1  0.48270000  0.30860000  0.51320000  1
  C  C163  1  0.48590000  0.70290000  0.17070000  1
  C  C164  1  0.48900000  0.66230000  0.91500000  1
  C  C165  1  0.49510000  0.61630000  0.36090000  1
  C  C166  1  0.50490000  0.38370000  0.63910000  1
  C  C167  1  0.51100000  0.33770000  0.08500000  1
  C  C168  1  0.51410000  0.29710000  0.82930000  1
  C  C169  1  0.51730000  0.69140000  0.48680000  1
  C  C170  1  0.52400000  0.62310000  0.29400000  1
  C  C171  1  0.52440000  0.77600000  0.44010000  1
  C  C172  1  0.54130000  0.31070000  0.75690000  1
  C  C173  1  0.55060000  0.40630000  0.17540000  1
  C  C174  1  0.56260000  0.70720000  0.87360000  1
  C  C175  1  0.58210000  0.32780000  0.50050000  1
  C  C176  1  0.60010000  0.32780000  0.62290000  1
  C  C177  1  0.60310000  0.62460000  0.52370000  1
  C  C178  1  0.60660000  0.38220000  0.00210000  1
  C  C179  1  0.61760000  0.79080000  0.42950000  1
  C  C180  1  0.61890000  0.34440000  0.43540000  1
  C  C181  1  0.62030000  0.31890000  0.22880000  1
  C  C182  1  0.62370000  0.41360000  0.05830000  1
  C  C183  1  0.62920000  0.09080000  0.06860000  1
  C  C184  1  0.63520000  0.33830000  0.55110000  1
  C  C185  1  0.63930000  0.25240000  0.73950000  1
  C  C186  1  0.65430000  0.39850000  0.94230000  1
  C  C187  1  0.66840000  0.26140000  0.67460000  1
  C  C188  1  0.69040000  0.46580000  0.05300000  1
  C  C189  1  0.69620000  0.63780000  0.51300000  1
  C  C190  1  0.70210000  0.78450000  0.02120000  1
  C  C191  1  0.70380000  0.72160000  0.46540000  1
  C  C192  1  0.70450000  0.36970000  0.41940000  1
  C  C193  1  0.71960000  0.45040000  0.93950000  1
  C  C194  1  0.72320000  0.36310000  0.53350000  1
  C  C195  1  0.72650000  0.11690000  0.05170000  1
  C  C196  1  0.73160000  0.30290000  0.22360000  1
  C  C197  1  0.73880000  0.48080000  0.99470000  1
  C  C198  1  0.75580000  0.38160000  0.46930000  1
  C  C199  1  0.75820000  0.13310000  0.98630000  1
  C  C200  1  0.77080000  0.01680000  0.48910000  1
  C  C201  1  0.77770000  0.04420000  0.54880000  1
  C  C202  1  0.78400000  0.12220000  0.10200000  1
  C  C203  1  0.79730000  0.21540000  0.27610000  1
  C  C204  1  0.80330000  0.73910000  0.45380000  1
  C  C205  1  0.80410000  0.79760000  0.01030000  1
  C  C206  1  0.82380000  0.86820000  0.03560000  1
  C  C207  1  0.82890000  0.03900000  0.43420000  1
  C  C208  1  0.84190000  0.09500000  0.55350000  1
  C  C209  1  0.84520000  0.41680000  0.45250000  1
  C  C210  1  0.84860000  0.15380000  0.96940000  1
  C  C211  1  0.87120000  0.14540000  0.08620000  1
  C  C212  1  0.87900000  0.16910000  0.89750000  1
  C  C213  1  0.87970000  0.73920000  0.97660000  1
  C  C214  1  0.88490000  0.09820000  0.86190000  1
  C  C215  1  0.89390000  0.09330000  0.43830000  1
  C  C216  1  0.89800000  0.12030000  0.49810000  1
  C  C217  1  0.90000000  0.25430000  0.86410000  1
  C  C218  1  0.90590000  0.16010000  0.02060000  1
  C  C219  1  0.90610000  0.20070000  0.27450000  1
  C  C220  1  0.91220000  0.11150000  0.79490000  1
  C  C221  1  0.91700000  0.88050000  0.02680000  1
  C  C222  1  0.92630000  0.26640000  0.79730000  1
  C  C223  1  0.93000000  0.77520000  0.60770000  1
  C  C224  1  0.93280000  0.19540000  0.76170000  1
  C  C225  1  0.96000000  0.21120000  0.68920000  1
  C  C226  1  0.97500000  0.75110000  0.96830000  1
  C  C227  1  0.97630000  0.11160000  0.32670000  1
  C  C228  1  0.99510000  0.82290000  0.99260000  1
  C  C229  1  0.99650000  0.17680000  0.42410000  1
  N  N230  1  0.03720000  0.82520000  0.51270000  1
  N  N231  1  0.04600000  0.87010000  0.60660000  1
  N  N232  1  0.43730000  0.61610000  0.89010000  1
  N  N233  1  0.46650000  0.66390000  0.97880000  1
  N  N234  1  0.53350000  0.33610000  0.02120000  1
  N  N235  1  0.56270000  0.38390000  0.10990000  1
  N  N236  1  0.95400000  0.12990000  0.39340000  1
  N  N237  1  0.96280000  0.17480000  0.48730000  1
  O  O238  1  0.03080000  0.85530000  0.34030000  1
  O  O239  1  0.03110000  0.70660000  0.34190000  1
  O  O240  1  0.09900000  0.59180000  0.49780000  1
  O  O241  1  0.11600000  0.33340000  0.52090000  1
  O  O242  1  0.13910000  0.54440000  0.60690000  1
  O  O243  1  0.19150000  0.17820000  0.57710000  1
  O  O244  1  0.30930000  0.28810000  0.99380000  1
  O  O245  1  0.37070000  0.15400000  0.95510000  1
  O  O246  1  0.38590000  0.94660000  0.87360000  1
  O  O247  1  0.42760000  0.89570000  0.98110000  1
  O  O248  1  0.43290000  0.78080000  0.12870000  1
  O  O249  1  0.43700000  0.36080000  0.84590000  1
  O  O250  1  0.56300000  0.63920000  0.15410000  1
  O  O251  1  0.56710000  0.21920000  0.87130000  1
  O  O252  1  0.57240000  0.10430000  0.01890000  1
  O  O253  1  0.61410000  0.05340000  0.12640000  1
  O  O254  1  0.62930000  0.84600000  0.04490000  1
  O  O255  1  0.69070000  0.71190000  0.00620000  1
  O  O256  1  0.80850000  0.82180000  0.42290000  1
  O  O257  1  0.86090000  0.45560000  0.39310000  1
  O  O258  1  0.88400000  0.66666667  0.47910000  1
  O  O259  1  0.90100000  0.40820000  0.50220000  1
  O  O260  1  0.96890000  0.29340000  0.65810000  1
  O  O261  1  0.96920000  0.14470000  0.65970000  1
