# generated using pymatgen
data_MnH10C14(NO2)2
_symmetry_space_group_name_H-M   'P 1'
_cell_length_a   11.88450000
_cell_length_b   11.88450000
_cell_length_c   16.35700000
_cell_angle_alpha   73.45420000
_cell_angle_beta   73.45420000
_cell_angle_gamma   78.48890000
_symmetry_Int_Tables_number   1
_chemical_formula_structural   MnH10C14(NO2)2
_chemical_formula_sum   'Mn4 H40 C56 N8 O16'
_cell_volume   2105.20554274
_cell_formula_units_Z   4
loop_
 _symmetry_equiv_pos_site_id
 _symmetry_equiv_pos_as_xyz
  1  'x, y, z'
loop_
 _atom_site_type_symbol
 _atom_site_label
 _atom_site_symmetry_multiplicity
 _atom_site_fract_x
 _atom_site_fract_y
 _atom_site_fract_z
 _atom_site_occupancy
  Mn  Mn0  1  0.61562000  0.83252000  0.54678000  1
  Mn  Mn1  1  0.83252000  0.61562000  0.04678000  1
  Mn  Mn2  1  0.16748000  0.38438000  0.95322000  1
  Mn  Mn3  1  0.38438000  0.16748000  0.45322000  1
  H  H4  1  0.57440000  0.98100000  0.04680000  1
  H  H5  1  0.51190000  0.85710000  0.75520000  1
  H  H6  1  0.54600000  0.83440000  0.96360000  1
  H  H7  1  0.66110000  0.81190000  0.27480000  1
  H  H8  1  0.41390000  0.77370000  0.48190000  1
  H  H9  1  0.62120000  0.73460000  0.82650000  1
  H  H10  1  0.36530000  0.70730000  0.99790000  1
  H  H11  1  0.63980000  0.67280000  0.92080000  1
  H  H12  1  0.81190000  0.66110000  0.77480000  1
  H  H13  1  0.67280000  0.63980000  0.42080000  1
  H  H14  1  0.29270000  0.63470000  0.50210000  1
  H  H15  1  0.73460000  0.62120000  0.32650000  1
  H  H16  1  0.22630000  0.58610000  0.01810000  1
  H  H17  1  0.56410000  0.57890000  0.15090000  1
  H  H18  1  0.53940000  0.57680000  0.31990000  1
  H  H19  1  0.98100000  0.57440000  0.54680000  1
  H  H20  1  0.57890000  0.56410000  0.65090000  1
  H  H21  1  0.83440000  0.54600000  0.46360000  1
  H  H22  1  0.57680000  0.53940000  0.81990000  1
  H  H23  1  0.85710000  0.51190000  0.25520000  1
  H  H24  1  0.14290000  0.48810000  0.74480000  1
  H  H25  1  0.42320000  0.46060000  0.18010000  1
  H  H26  1  0.16560000  0.45400000  0.53640000  1
  H  H27  1  0.42110000  0.43590000  0.34910000  1
  H  H28  1  0.01900000  0.42560000  0.45320000  1
  H  H29  1  0.46060000  0.42320000  0.68010000  1
  H  H30  1  0.43590000  0.42110000  0.84910000  1
  H  H31  1  0.77370000  0.41390000  0.98190000  1
  H  H32  1  0.26540000  0.37880000  0.67350000  1
  H  H33  1  0.70730000  0.36530000  0.49790000  1
  H  H34  1  0.32720000  0.36020000  0.57920000  1
  H  H35  1  0.18810000  0.33890000  0.22520000  1
  H  H36  1  0.36020000  0.32720000  0.07920000  1
  H  H37  1  0.63470000  0.29270000  0.00210000  1
  H  H38  1  0.37880000  0.26540000  0.17350000  1
  H  H39  1  0.58610000  0.22630000  0.51810000  1
  H  H40  1  0.33890000  0.18810000  0.72520000  1
  H  H41  1  0.45400000  0.16560000  0.03640000  1
  H  H42  1  0.48810000  0.14290000  0.24480000  1
  H  H43  1  0.42560000  0.01900000  0.95320000  1
  C  C44  1  0.57370000  0.98030000  0.10400000  1
  C  C45  1  0.57380000  0.97640000  0.27400000  1
  C  C46  1  0.57310000  0.97530000  0.36720000  1
  C  C47  1  0.47860000  0.92320000  0.77750000  1
  C  C48  1  0.48100000  0.92240000  0.86360000  1
  C  C49  1  0.62780000  0.88140000  0.15410000  1
  C  C50  1  0.62670000  0.87870000  0.24030000  1
  C  C51  1  0.69060000  0.77840000  0.11630000  1
  C  C52  1  0.58140000  0.71700000  0.88850000  1
  C  C53  1  0.42250000  0.70250000  0.52340000  1
  C  C54  1  0.77840000  0.69060000  0.61630000  1
  C  C55  1  0.38080000  0.65140000  0.96500000  1
  C  C56  1  0.48750000  0.64010000  0.90350000  1
  C  C57  1  0.88140000  0.62780000  0.65410000  1
  C  C58  1  0.87870000  0.62670000  0.74030000  1
  C  C59  1  0.34860000  0.61920000  0.53500000  1
  C  C60  1  0.71700000  0.58140000  0.38850000  1
  C  C61  1  0.51800000  0.58060000  0.62240000  1
  C  C62  1  0.29750000  0.57750000  0.97660000  1
  C  C63  1  0.97640000  0.57380000  0.77400000  1
  C  C64  1  0.98030000  0.57370000  0.60400000  1
  C  C65  1  0.97530000  0.57310000  0.86720000  1
  C  C66  1  0.50560000  0.55180000  0.86060000  1
  C  C67  1  0.07680000  0.52140000  0.72250000  1
  C  C68  1  0.07760000  0.51900000  0.63640000  1
  C  C69  1  0.58060000  0.51800000  0.12240000  1
  C  C70  1  0.35990000  0.51250000  0.59650000  1
  C  C71  1  0.55180000  0.50560000  0.36060000  1
  C  C72  1  0.44820000  0.49440000  0.63940000  1
  C  C73  1  0.64010000  0.48750000  0.40350000  1
  C  C74  1  0.41940000  0.48200000  0.87760000  1
  C  C75  1  0.92240000  0.48100000  0.36360000  1
  C  C76  1  0.92320000  0.47860000  0.27750000  1
  C  C77  1  0.49440000  0.44820000  0.13940000  1
  C  C78  1  0.02470000  0.42690000  0.13280000  1
  C  C79  1  0.01970000  0.42630000  0.39600000  1
  C  C80  1  0.02360000  0.42620000  0.22600000  1
  C  C81  1  0.70250000  0.42250000  0.02340000  1
  C  C82  1  0.48200000  0.41940000  0.37760000  1
  C  C83  1  0.28300000  0.41860000  0.61150000  1
  C  C84  1  0.65140000  0.38080000  0.46500000  1
  C  C85  1  0.12130000  0.37330000  0.25970000  1
  C  C86  1  0.11860000  0.37220000  0.34590000  1
  C  C87  1  0.51250000  0.35990000  0.09650000  1
  C  C88  1  0.61920000  0.34860000  0.03500000  1
  C  C89  1  0.22160000  0.30940000  0.38370000  1
  C  C90  1  0.57750000  0.29750000  0.47660000  1
  C  C91  1  0.41860000  0.28300000  0.11150000  1
  C  C92  1  0.30940000  0.22160000  0.88370000  1
  C  C93  1  0.37330000  0.12130000  0.75970000  1
  C  C94  1  0.37220000  0.11860000  0.84590000  1
  C  C95  1  0.51900000  0.07760000  0.13640000  1
  C  C96  1  0.52140000  0.07680000  0.22250000  1
  C  C97  1  0.42690000  0.02470000  0.63280000  1
  C  C98  1  0.42620000  0.02360000  0.72600000  1
  C  C99  1  0.42630000  0.01970000  0.89600000  1
  N  N100  1  0.53710000  0.82790000  0.91490000  1
  N  N101  1  0.50490000  0.68710000  0.56770000  1
  N  N102  1  0.82790000  0.53710000  0.41490000  1
  N  N103  1  0.68710000  0.50490000  0.06770000  1
  N  N104  1  0.31290000  0.49510000  0.93230000  1
  N  N105  1  0.17210000  0.46290000  0.58510000  1
  N  N106  1  0.49510000  0.31290000  0.43230000  1
  N  N107  1  0.46290000  0.17210000  0.08510000  1
  O  O108  1  0.46460000  0.93040000  0.60790000  1
  O  O109  1  0.61400000  0.88020000  0.41220000  1
  O  O110  1  0.69770000  0.78430000  0.03640000  1
  O  O111  1  0.68780000  0.73740000  0.66420000  1
  O  O112  1  0.78430000  0.69770000  0.53640000  1
  O  O113  1  0.73740000  0.68780000  0.16420000  1
  O  O114  1  0.88020000  0.61400000  0.91220000  1
  O  O115  1  0.06960000  0.53540000  0.89210000  1
  O  O116  1  0.93040000  0.46460000  0.10790000  1
  O  O117  1  0.11980000  0.38600000  0.08780000  1
  O  O118  1  0.26260000  0.31220000  0.83580000  1
  O  O119  1  0.21570000  0.30230000  0.46360000  1
  O  O120  1  0.31220000  0.26260000  0.33580000  1
  O  O121  1  0.30230000  0.21570000  0.96360000  1
  O  O122  1  0.38600000  0.11980000  0.58780000  1
  O  O123  1  0.53540000  0.06960000  0.39210000  1
