# generated using pymatgen
data_MgH24C40(NO4)2
_symmetry_space_group_name_H-M   'P 1'
_cell_length_a   15.72720000
_cell_length_b   23.55500000
_cell_length_c   23.55500000
_cell_angle_alpha   64.56170000
_cell_angle_beta   70.49800000
_cell_angle_gamma   70.49800000
_symmetry_Int_Tables_number   1
_chemical_formula_structural   MgH24C40(NO4)2
_chemical_formula_sum   'Mg4 H96 C160 N8 O32'
_cell_volume   7239.68504984
_cell_formula_units_Z   4
loop_
 _symmetry_equiv_pos_site_id
 _symmetry_equiv_pos_as_xyz
  1  'x, y, z'
loop_
 _atom_site_type_symbol
 _atom_site_label
 _atom_site_symmetry_multiplicity
 _atom_site_fract_x
 _atom_site_fract_y
 _atom_site_fract_z
 _atom_site_occupancy
  Mg  Mg0  1  0.16901000  0.49487000  0.49487000  1
  Mg  Mg1  1  0.34125000  0.99487000  0.99487000  1
  Mg  Mg2  1  0.65875000  0.00513000  0.00513000  1
  Mg  Mg3  1  0.83099000  0.50513000  0.50513000  1
  H  H4  1  0.00410000  0.33630000  0.59830000  1
  H  H5  1  0.00410000  0.59830000  0.33630000  1
  H  H6  1  0.02280000  0.16220000  0.51780000  1
  H  H7  1  0.02280000  0.51780000  0.16220000  1
  H  H8  1  0.03690000  0.15910000  0.88330000  1
  H  H9  1  0.03690000  0.88330000  0.15910000  1
  H  H10  1  0.04980000  0.13670000  0.73470000  1
  H  H11  1  0.04980000  0.73470000  0.13670000  1
  H  H12  1  0.05770000  0.35620000  0.75340000  1
  H  H13  1  0.05770000  0.75340000  0.35620000  1
  H  H14  1  0.06420000  0.09760000  0.45900000  1
  H  H15  1  0.06420000  0.45900000  0.09760000  1
  H  H16  1  0.06730000  0.00740000  0.67500000  1
  H  H17  1  0.06730000  0.67500000  0.00740000  1
  H  H18  1  0.10780000  0.61230000  0.94230000  1
  H  H19  1  0.10780000  0.94230000  0.61230000  1
  H  H20  1  0.12080000  0.04100000  0.40240000  1
  H  H21  1  0.12080000  0.40240000  0.04100000  1
  H  H22  1  0.12490000  0.30460000  0.92340000  1
  H  H23  1  0.12490000  0.92340000  0.30460000  1
  H  H24  1  0.14620000  0.45010000  0.69830000  1
  H  H25  1  0.14620000  0.69830000  0.45010000  1
  H  H26  1  0.14710000  0.42340000  0.80460000  1
  H  H27  1  0.14710000  0.80460000  0.42340000  1
  H  H28  1  0.16240000  0.55770000  0.88770000  1
  H  H29  1  0.16240000  0.88770000  0.55770000  1
  H  H30  1  0.17820000  0.14660000  0.56860000  1
  H  H31  1  0.17820000  0.56860000  0.14660000  1
  H  H32  1  0.20280000  0.33780000  0.98220000  1
  H  H33  1  0.20280000  0.98220000  0.33780000  1
  H  H34  1  0.20540000  0.19830000  0.95010000  1
  H  H35  1  0.20540000  0.95010000  0.19830000  1
  H  H36  1  0.24130000  0.23670000  0.52330000  1
  H  H37  1  0.24130000  0.52330000  0.23670000  1
  H  H38  1  0.24970000  0.49260000  0.82500000  1
  H  H39  1  0.24970000  0.82500000  0.49260000  1
  H  H40  1  0.33270000  0.25340000  0.85620000  1
  H  H41  1  0.33270000  0.85620000  0.25340000  1
  H  H42  1  0.39340000  0.35340000  0.93140000  1
  H  H43  1  0.39340000  0.93140000  0.35340000  1
  H  H44  1  0.42070000  0.38330000  0.65910000  1
  H  H45  1  0.42070000  0.65910000  0.38330000  1
  H  H46  1  0.42120000  0.36330000  0.76530000  1
  H  H47  1  0.42120000  0.76530000  0.36330000  1
  H  H48  1  0.43870000  0.16370000  0.90170000  1
  H  H49  1  0.43870000  0.90170000  0.16370000  1
  H  H50  1  0.49870000  0.02330000  0.73670000  1
  H  H51  1  0.49870000  0.73670000  0.02330000  1
  H  H52  1  0.50130000  0.26330000  0.97670000  1
  H  H53  1  0.50130000  0.97670000  0.26330000  1
  H  H54  1  0.56130000  0.09830000  0.83630000  1
  H  H55  1  0.56130000  0.83630000  0.09830000  1
  H  H56  1  0.57880000  0.23470000  0.63670000  1
  H  H57  1  0.57880000  0.63670000  0.23470000  1
  H  H58  1  0.57930000  0.34090000  0.61670000  1
  H  H59  1  0.57930000  0.61670000  0.34090000  1
  H  H60  1  0.60660000  0.06860000  0.64660000  1
  H  H61  1  0.60660000  0.64660000  0.06860000  1
  H  H62  1  0.66730000  0.14380000  0.74660000  1
  H  H63  1  0.66730000  0.74660000  0.14380000  1
  H  H64  1  0.75030000  0.17500000  0.50740000  1
  H  H65  1  0.75030000  0.50740000  0.17500000  1
  H  H66  1  0.75870000  0.47670000  0.76330000  1
  H  H67  1  0.75870000  0.76330000  0.47670000  1
  H  H68  1  0.79460000  0.04990000  0.80170000  1
  H  H69  1  0.79460000  0.80170000  0.04990000  1
  H  H70  1  0.79720000  0.01780000  0.66220000  1
  H  H71  1  0.79720000  0.66220000  0.01780000  1
  H  H72  1  0.82180000  0.43140000  0.85340000  1
  H  H73  1  0.82180000  0.85340000  0.43140000  1
  H  H74  1  0.83760000  0.11230000  0.44230000  1
  H  H75  1  0.83760000  0.44230000  0.11230000  1
  H  H76  1  0.85290000  0.19540000  0.57660000  1
  H  H77  1  0.85290000  0.57660000  0.19540000  1
  H  H78  1  0.85380000  0.30170000  0.54990000  1
  H  H79  1  0.85380000  0.54990000  0.30170000  1
  H  H80  1  0.87510000  0.07660000  0.69540000  1
  H  H81  1  0.87510000  0.69540000  0.07660000  1
  H  H82  1  0.87920000  0.59760000  0.95900000  1
  H  H83  1  0.87920000  0.95900000  0.59760000  1
  H  H84  1  0.89220000  0.05770000  0.38770000  1
  H  H85  1  0.89220000  0.38770000  0.05770000  1
  H  H86  1  0.93270000  0.32500000  0.99260000  1
  H  H87  1  0.93270000  0.99260000  0.32500000  1
  H  H88  1  0.93580000  0.54100000  0.90240000  1
  H  H89  1  0.93580000  0.90240000  0.54100000  1
  H  H90  1  0.94230000  0.24660000  0.64380000  1
  H  H91  1  0.94230000  0.64380000  0.24660000  1
  H  H92  1  0.95020000  0.26530000  0.86330000  1
  H  H93  1  0.95020000  0.86330000  0.26530000  1
  H  H94  1  0.96310000  0.11670000  0.84090000  1
  H  H95  1  0.96310000  0.84090000  0.11670000  1
  H  H96  1  0.97720000  0.48220000  0.83780000  1
  H  H97  1  0.97720000  0.83780000  0.48220000  1
  H  H98  1  0.99590000  0.40170000  0.66370000  1
  H  H99  1  0.99590000  0.66370000  0.40170000  1
  C  C100  1  0.00257000  0.24447000  0.61919000  1
  C  C101  1  0.00257000  0.61919000  0.24447000  1
  C  C102  1  0.00404000  0.25216000  0.87816000  1
  C  C103  1  0.00404000  0.87816000  0.25216000  1
  C  C104  1  0.03521000  0.29509000  0.88589000  1
  C  C105  1  0.03521000  0.88589000  0.29509000  1
  C  C106  1  0.03895000  0.09245000  0.60205000  1
  C  C107  1  0.03895000  0.60205000  0.09245000  1
  C  C108  1  0.04000000  0.29843000  0.59157000  1
  C  C109  1  0.04000000  0.59157000  0.29843000  1
  C  C110  1  0.04049000  0.11781000  0.53781000  1
  C  C111  1  0.04049000  0.53781000  0.11781000  1
  C  C112  1  0.05386000  0.18819000  0.61049000  1
  C  C113  1  0.05386000  0.61049000  0.18819000  1
  C  C114  1  0.05405000  0.18775000  0.89275000  1
  C  C115  1  0.05405000  0.89275000  0.18775000  1
  C  C116  1  0.06660000  0.02610000  0.63130000  1
  C  C117  1  0.06660000  0.63130000  0.02610000  1
  C  C118  1  0.06763000  0.07877000  0.50217000  1
  C  C119  1  0.06763000  0.50217000  0.07877000  1
  C  C120  1  0.09390000  0.59230000  0.98690000  1
  C  C121  1  0.09390000  0.98690000  0.59230000  1
  C  C122  1  0.10018000  0.01212000  0.52812000  1
  C  C123  1  0.10018000  0.52812000  0.01212000  1
  C  C124  1  0.10770000  0.27540000  0.91500000  1
  C  C125  1  0.10770000  0.91500000  0.27540000  1
  C  C126  1  0.12748000  0.29762000  0.55502000  1
  C  C127  1  0.12748000  0.55502000  0.29762000  1
  C  C128  1  0.12857000  0.16659000  0.92107000  1
  C  C129  1  0.12857000  0.92107000  0.16659000  1
  C  C130  1  0.14042000  0.48788000  0.97188000  1
  C  C131  1  0.14042000  0.97188000  0.48788000  1
  C  C132  1  0.14293000  0.18497000  0.57457000  1
  C  C133  1  0.14293000  0.57457000  0.18497000  1
  C  C134  1  0.14857000  0.42123000  0.99783000  1
  C  C135  1  0.14857000  0.99783000  0.42123000  1
  C  C136  1  0.15496000  0.21153000  0.93155000  1
  C  C137  1  0.15496000  0.93155000  0.21153000  1
  C  C138  1  0.17310000  0.51310000  0.90770000  1
  C  C139  1  0.17310000  0.90770000  0.51310000  1
  C  C140  1  0.17409000  0.35221000  0.52421000  1
  C  C141  1  0.17409000  0.52421000  0.35221000  1
  C  C142  1  0.18057000  0.23913000  0.54713000  1
  C  C143  1  0.18057000  0.54713000  0.23913000  1
  C  C144  1  0.18413000  0.09807000  0.94147000  1
  C  C145  1  0.18413000  0.94147000  0.09807000  1
  C  C146  1  0.19611000  0.38219000  0.96219000  1
  C  C147  1  0.19611000  0.96219000  0.38219000  1
  C  C148  1  0.20190000  0.41500000  0.77540000  1
  C  C149  1  0.20190000  0.77540000  0.41500000  1
  C  C150  1  0.20196000  0.43155000  0.71153000  1
  C  C151  1  0.20196000  0.71153000  0.43155000  1
  C  C152  1  0.22400000  0.47390000  0.86870000  1
  C  C153  1  0.22400000  0.86870000  0.47390000  1
  C  C154  1  0.23345000  0.40755000  0.89795000  1
  C  C155  1  0.23345000  0.89795000  0.40755000  1
  C  C156  1  0.27633000  0.44147000  0.59807000  1
  C  C157  1  0.27633000  0.59807000  0.44147000  1
  C  C158  1  0.28377000  0.42107000  0.66659000  1
  C  C159  1  0.28377000  0.66659000  0.42107000  1
  C  C160  1  0.28381000  0.38589000  0.79509000  1
  C  C161  1  0.28381000  0.79509000  0.38589000  1
  C  C162  1  0.35254000  0.31181000  0.88951000  1
  C  C163  1  0.35254000  0.88951000  0.31181000  1
  C  C164  1  0.36545000  0.39275000  0.68775000  1
  C  C165  1  0.36545000  0.68775000  0.39275000  1
  C  C166  1  0.36564000  0.37816000  0.75216000  1
  C  C167  1  0.36564000  0.75216000  0.37816000  1
  C  C168  1  0.36623000  0.25553000  0.88081000  1
  C  C169  1  0.36623000  0.88081000  0.25553000  1
  C  C170  1  0.40247000  0.31503000  0.92543000  1
  C  C171  1  0.40247000  0.92543000  0.31503000  1
  C  C172  1  0.43000000  0.20157000  0.90843000  1
  C  C173  1  0.43000000  0.90843000  0.20157000  1
  C  C174  1  0.44949000  0.02421000  0.85221000  1
  C  C175  1  0.44949000  0.85221000  0.02421000  1
  C  C176  1  0.46683000  0.26087000  0.95287000  1
  C  C177  1  0.46683000  0.95287000  0.26087000  1
  C  C178  1  0.48012000  0.20238000  0.94498000  1
  C  C179  1  0.48012000  0.94498000  0.20238000  1
  C  C180  1  0.51988000  0.05502000  0.79762000  1
  C  C181  1  0.51988000  0.79762000  0.05502000  1
  C  C182  1  0.53317000  0.04713000  0.73913000  1
  C  C183  1  0.53317000  0.73913000  0.04713000  1
  C  C184  1  0.55051000  0.14779000  0.97579000  1
  C  C185  1  0.55051000  0.97579000  0.14779000  1
  C  C186  1  0.57000000  0.09157000  0.79843000  1
  C  C187  1  0.57000000  0.79843000  0.09157000  1
  C  C188  1  0.59753000  0.07457000  0.68497000  1
  C  C189  1  0.59753000  0.68497000  0.07457000  1
  C  C190  1  0.63377000  0.11919000  0.74447000  1
  C  C191  1  0.63377000  0.74447000  0.11919000  1
  C  C192  1  0.63436000  0.24784000  0.62184000  1
  C  C193  1  0.63436000  0.62184000  0.24784000  1
  C  C194  1  0.63455000  0.31225000  0.60725000  1
  C  C195  1  0.63455000  0.60725000  0.31225000  1
  C  C196  1  0.64746000  0.11049000  0.68819000  1
  C  C197  1  0.64746000  0.68819000  0.11049000  1
  C  C198  1  0.71619000  0.20491000  0.61411000  1
  C  C199  1  0.71619000  0.61411000  0.20491000  1
  C  C200  1  0.71623000  0.33341000  0.57893000  1
  C  C201  1  0.71623000  0.57893000  0.33341000  1
  C  C202  1  0.72367000  0.40193000  0.55853000  1
  C  C203  1  0.72367000  0.55853000  0.40193000  1
  C  C204  1  0.76655000  0.10205000  0.59245000  1
  C  C205  1  0.76655000  0.59245000  0.10205000  1
  C  C206  1  0.77600000  0.13130000  0.52610000  1
  C  C207  1  0.77600000  0.52610000  0.13130000  1
  C  C208  1  0.79804000  0.28847000  0.56845000  1
  C  C209  1  0.79804000  0.56845000  0.28847000  1
  C  C210  1  0.79810000  0.22460000  0.58500000  1
  C  C211  1  0.79810000  0.58500000  0.22460000  1
  C  C212  1  0.80389000  0.03781000  0.61781000  1
  C  C213  1  0.80389000  0.61781000  0.03781000  1
  C  C214  1  0.81587000  0.05853000  0.90193000  1
  C  C215  1  0.81587000  0.90193000  0.05853000  1
  C  C216  1  0.81943000  0.45287000  0.76087000  1
  C  C217  1  0.81943000  0.76087000  0.45287000  1
  C  C218  1  0.82591000  0.47579000  0.64779000  1
  C  C219  1  0.82591000  0.64779000  0.47579000  1
  C  C220  1  0.82690000  0.09230000  0.48690000  1
  C  C221  1  0.82690000  0.48690000  0.09230000  1
  C  C222  1  0.84504000  0.06845000  0.78847000  1
  C  C223  1  0.84504000  0.78847000  0.06845000  1
  C  C224  1  0.85143000  0.00217000  0.57877000  1
  C  C225  1  0.85143000  0.57877000  0.00217000  1
  C  C226  1  0.85707000  0.42543000  0.81503000  1
  C  C227  1  0.85707000  0.81503000  0.42543000  1
  C  C228  1  0.85958000  0.02812000  0.51212000  1
  C  C229  1  0.85958000  0.51212000  0.02812000  1
  C  C230  1  0.87143000  0.07893000  0.83341000  1
  C  C231  1  0.87143000  0.83341000  0.07893000  1
  C  C232  1  0.87252000  0.44498000  0.70238000  1
  C  C233  1  0.87252000  0.70238000  0.44498000  1
  C  C234  1  0.89230000  0.08500000  0.72460000  1
  C  C235  1  0.89230000  0.72460000  0.08500000  1
  C  C236  1  0.89982000  0.47188000  0.98788000  1
  C  C237  1  0.89982000  0.98788000  0.47188000  1
  C  C238  1  0.90610000  0.01310000  0.40770000  1
  C  C239  1  0.90610000  0.40770000  0.01310000  1
  C  C240  1  0.93237000  0.49783000  0.92123000  1
  C  C241  1  0.93237000  0.92123000  0.49783000  1
  C  C242  1  0.93340000  0.36870000  0.97390000  1
  C  C243  1  0.93340000  0.97390000  0.36870000  1
  C  C244  1  0.94595000  0.10725000  0.81225000  1
  C  C245  1  0.94595000  0.81225000  0.10725000  1
  C  C246  1  0.94614000  0.38951000  0.81181000  1
  C  C247  1  0.94614000  0.81181000  0.38951000  1
  C  C248  1  0.95951000  0.46219000  0.88219000  1
  C  C249  1  0.95951000  0.88219000  0.46219000  1
  C  C250  1  0.96000000  0.40843000  0.70157000  1
  C  C251  1  0.96000000  0.70157000  0.40843000  1
  C  C252  1  0.96105000  0.39795000  0.90755000  1
  C  C253  1  0.96105000  0.90755000  0.39795000  1
  C  C254  1  0.96479000  0.11411000  0.70491000  1
  C  C255  1  0.96479000  0.70491000  0.11411000  1
  C  C256  1  0.99596000  0.12184000  0.74784000  1
  C  C257  1  0.99596000  0.74784000  0.12184000  1
  C  C258  1  0.99743000  0.38081000  0.75553000  1
  C  C259  1  0.99743000  0.75553000  0.38081000  1
  N  N260  1  0.01603000  0.13197000  0.63917000  1
  N  N261  1  0.01603000  0.63917000  0.13197000  1
  N  N262  1  0.28717000  0.36803000  0.86083000  1
  N  N263  1  0.28717000  0.86083000  0.36803000  1
  N  N264  1  0.71283000  0.13917000  0.63197000  1
  N  N265  1  0.71283000  0.63197000  0.13917000  1
  N  N266  1  0.98397000  0.36083000  0.86803000  1
  N  N267  1  0.98397000  0.86803000  0.36083000  1
  O  O268  1  0.12420000  0.40762000  0.52598000  1
  O  O269  1  0.12420000  0.52598000  0.40762000  1
  O  O270  1  0.14602000  0.06080000  0.93376000  1
  O  O271  1  0.14602000  0.93376000  0.06080000  1
  O  O272  1  0.20456000  0.46243000  0.58145000  1
  O  O273  1  0.20456000  0.58145000  0.46243000  1
  O  O274  1  0.25156000  0.08145000  0.96243000  1
  O  O275  1  0.25156000  0.96243000  0.08145000  1
  O  O276  1  0.25866000  0.34184000  0.50004000  1
  O  O277  1  0.25866000  0.50004000  0.34184000  1
  O  O278  1  0.35942000  0.43376000  0.56080000  1
  O  O279  1  0.35942000  0.56080000  0.43376000  1
  O  O280  1  0.39946000  0.00004000  0.84184000  1
  O  O281  1  0.39946000  0.84184000  0.00004000  1
  O  O282  1  0.44220000  0.02598000  0.90762000  1
  O  O283  1  0.44220000  0.90762000  0.02598000  1
  O  O284  1  0.55780000  0.09238000  0.97402000  1
  O  O285  1  0.55780000  0.97402000  0.09238000  1
  O  O286  1  0.60054000  0.15816000  0.99996000  1
  O  O287  1  0.60054000  0.99996000  0.15816000  1
  O  O288  1  0.64058000  0.43920000  0.56624000  1
  O  O289  1  0.64058000  0.56624000  0.43920000  1
  O  O290  1  0.74134000  0.49996000  0.65816000  1
  O  O291  1  0.74134000  0.65816000  0.49996000  1
  O  O292  1  0.74844000  0.03757000  0.91855000  1
  O  O293  1  0.74844000  0.91855000  0.03757000  1
  O  O294  1  0.79544000  0.41855000  0.53757000  1
  O  O295  1  0.79544000  0.53757000  0.41855000  1
  O  O296  1  0.85398000  0.06624000  0.93920000  1
  O  O297  1  0.85398000  0.93920000  0.06624000  1
  O  O298  1  0.87580000  0.47402000  0.59238000  1
  O  O299  1  0.87580000  0.59238000  0.47402000  1
