# generated using pymatgen
data_MnH8C14SO6
_symmetry_space_group_name_H-M   'P 1'
_cell_length_a   16.70940000
_cell_length_b   17.19360000
_cell_length_c   20.28570000
_cell_angle_alpha   90.00000000
_cell_angle_beta   90.00000000
_cell_angle_gamma   99.17800000
_symmetry_Int_Tables_number   1
_chemical_formula_structural   MnH8C14SO6
_chemical_formula_sum   'Mn12 H96 C168 S12 O72'
_cell_volume   5753.36273474
_cell_formula_units_Z   12
loop_
 _symmetry_equiv_pos_site_id
 _symmetry_equiv_pos_as_xyz
  1  'x, y, z'
loop_
 _atom_site_type_symbol
 _atom_site_label
 _atom_site_symmetry_multiplicity
 _atom_site_fract_x
 _atom_site_fract_y
 _atom_site_fract_z
 _atom_site_occupancy
  Mn  Mn0  1  0.96372000  0.75055000  0.16207000  1
  Mn  Mn1  1  0.91130000  0.05124000  0.85701000  1
  Mn  Mn2  1  0.84999000  0.55512000  0.11581000  1
  Mn  Mn3  1  0.65001000  0.94488000  0.61581000  1
  Mn  Mn4  1  0.58870000  0.44876000  0.35701000  1
  Mn  Mn5  1  0.53628000  0.74945000  0.66207000  1
  Mn  Mn6  1  0.46372000  0.25055000  0.33793000  1
  Mn  Mn7  1  0.41130000  0.55124000  0.64299000  1
  Mn  Mn8  1  0.34999000  0.05512000  0.38419000  1
  Mn  Mn9  1  0.15001000  0.44488000  0.88419000  1
  Mn  Mn10  1  0.08870000  0.94876000  0.14299000  1
  Mn  Mn11  1  0.03628000  0.24945000  0.83793000  1
  H  H12  1  0.99460000  0.78880000  0.00020000  1
  H  H13  1  0.99210000  0.74780000  0.46090000  1
  H  H14  1  0.99170000  0.76360000  0.34800000  1
  H  H15  1  0.98050000  0.61500000  0.63220000  1
  H  H16  1  0.97890000  0.90560000  0.75330000  1
  H  H17  1  0.97750000  0.42640000  0.06460000  1
  H  H18  1  0.97020000  0.43260000  0.27180000  1
  H  H19  1  0.96380000  0.15760000  0.10150000  1
  H  H20  1  0.94230000  0.34620000  0.67300000  1
  H  H21  1  0.93770000  0.37370000  0.16720000  1
  H  H22  1  0.91770000  0.30790000  0.43860000  1
  H  H23  1  0.91660000  0.66920000  0.74390000  1
  H  H24  1  0.90390000  0.02540000  0.51920000  1
  H  H25  1  0.90380000  0.01060000  0.63270000  1
  H  H26  1  0.89540000  0.39260000  0.57520000  1
  H  H27  1  0.88210000  0.04560000  0.03630000  1
  H  H28  1  0.84820000  0.91910000  0.72370000  1
  H  H29  1  0.82450000  0.66730000  0.56590000  1
  H  H30  1  0.82250000  0.35150000  0.88150000  1
  H  H31  1  0.80860000  0.82110000  0.09310000  1
  H  H32  1  0.80200000  0.36320000  0.42000000  1
  H  H33  1  0.79370000  0.09360000  0.39670000  1
  H  H34  1  0.78540000  0.68330000  0.71760000  1
  H  H35  1  0.75010000  0.05710000  0.00810000  1
  H  H36  1  0.74990000  0.44290000  0.50810000  1
  H  H37  1  0.71460000  0.81670000  0.21760000  1
  H  H38  1  0.70630000  0.40640000  0.89670000  1
  H  H39  1  0.69800000  0.13680000  0.92000000  1
  H  H40  1  0.69140000  0.67890000  0.59310000  1
  H  H41  1  0.67750000  0.14850000  0.38150000  1
  H  H42  1  0.67550000  0.83270000  0.06590000  1
  H  H43  1  0.65180000  0.58090000  0.22370000  1
  H  H44  1  0.61790000  0.45440000  0.53630000  1
  H  H45  1  0.60460000  0.10740000  0.07520000  1
  H  H46  1  0.59620000  0.48940000  0.13270000  1
  H  H47  1  0.59610000  0.47460000  0.01920000  1
  H  H48  1  0.58340000  0.83080000  0.24390000  1
  H  H49  1  0.58230000  0.19210000  0.93860000  1
  H  H50  1  0.56230000  0.12630000  0.66720000  1
  H  H51  1  0.55770000  0.15380000  0.17300000  1
  H  H52  1  0.53620000  0.34240000  0.60150000  1
  H  H53  1  0.52980000  0.06740000  0.77180000  1
  H  H54  1  0.52250000  0.07360000  0.56460000  1
  H  H55  1  0.52110000  0.59440000  0.25330000  1
  H  H56  1  0.51950000  0.88500000  0.13220000  1
  H  H57  1  0.50830000  0.73640000  0.84800000  1
  H  H58  1  0.50790000  0.75220000  0.96090000  1
  H  H59  1  0.50540000  0.71120000  0.50020000  1
  H  H60  1  0.49460000  0.28880000  0.49980000  1
  H  H61  1  0.49210000  0.24780000  0.03910000  1
  H  H62  1  0.49170000  0.26360000  0.15200000  1
  H  H63  1  0.48050000  0.11500000  0.86780000  1
  H  H64  1  0.47890000  0.40560000  0.74670000  1
  H  H65  1  0.47750000  0.92640000  0.43540000  1
  H  H66  1  0.47020000  0.93260000  0.22820000  1
  H  H67  1  0.46380000  0.65760000  0.39850000  1
  H  H68  1  0.44230000  0.84620000  0.82700000  1
  H  H69  1  0.43770000  0.87370000  0.33280000  1
  H  H70  1  0.41770000  0.80790000  0.06140000  1
  H  H71  1  0.41660000  0.16920000  0.75610000  1
  H  H72  1  0.40390000  0.52540000  0.98080000  1
  H  H73  1  0.40380000  0.51060000  0.86730000  1
  H  H74  1  0.39540000  0.89260000  0.92480000  1
  H  H75  1  0.38210000  0.54560000  0.46370000  1
  H  H76  1  0.34820000  0.41910000  0.77630000  1
  H  H77  1  0.32450000  0.16730000  0.93410000  1
  H  H78  1  0.32250000  0.85150000  0.61850000  1
  H  H79  1  0.30860000  0.32110000  0.40690000  1
  H  H80  1  0.30200000  0.86320000  0.08000000  1
  H  H81  1  0.29370000  0.59360000  0.10330000  1
  H  H82  1  0.28540000  0.18330000  0.78240000  1
  H  H83  1  0.25010000  0.55710000  0.49190000  1
  H  H84  1  0.24990000  0.94290000  0.99190000  1
  H  H85  1  0.21460000  0.31670000  0.28240000  1
  H  H86  1  0.20630000  0.90640000  0.60330000  1
  H  H87  1  0.19800000  0.63680000  0.58000000  1
  H  H88  1  0.19140000  0.17890000  0.90690000  1
  H  H89  1  0.17750000  0.64850000  0.11850000  1
  H  H90  1  0.17550000  0.33270000  0.43410000  1
  H  H91  1  0.15180000  0.08090000  0.27630000  1
  H  H92  1  0.11790000  0.95440000  0.96370000  1
  H  H93  1  0.10460000  0.60740000  0.42480000  1
  H  H94  1  0.09620000  0.98940000  0.36730000  1
  H  H95  1  0.09610000  0.97460000  0.48080000  1
  H  H96  1  0.08340000  0.33080000  0.25610000  1
  H  H97  1  0.08230000  0.69210000  0.56140000  1
  H  H98  1  0.06230000  0.62630000  0.83280000  1
  H  H99  1  0.05770000  0.65380000  0.32700000  1
  H  H100  1  0.03620000  0.84240000  0.89850000  1
  H  H101  1  0.02980000  0.56740000  0.72820000  1
  H  H102  1  0.02250000  0.57360000  0.93540000  1
  H  H103  1  0.02110000  0.09440000  0.24670000  1
  H  H104  1  0.01950000  0.38500000  0.36780000  1
  H  H105  1  0.00830000  0.23640000  0.65200000  1
  H  H106  1  0.00790000  0.25220000  0.53910000  1
  H  H107  1  0.00540000  0.21120000  0.99980000  1
  C  C108  1  0.99810000  0.67502000  0.97583000  1
  C  C109  1  0.99720000  0.46754000  0.30242000  1
  C  C110  1  0.99400000  0.24370000  0.03401000  1
  C  C111  1  0.99236000  0.45160000  0.70996000  1
  C  C112  1  0.98740000  0.20380000  0.55792000  1
  C  C113  1  0.98720000  0.19411000  0.62526000  1
  C  C114  1  0.97750000  0.37320000  0.07300000  1
  C  C115  1  0.97360000  0.56110000  0.64026000  1
  C  C116  1  0.97280000  0.58080000  0.22874000  1
  C  C117  1  0.96910000  0.21160000  0.09451000  1
  C  C118  1  0.96049000  0.78588000  0.75110000  1
  C  C119  1  0.95780000  0.11575000  0.72802000  1
  C  C120  1  0.95620000  0.13960000  0.51831000  1
  C  C121  1  0.95602000  0.12190000  0.65420000  1
  C  C122  1  0.95310000  0.34180000  0.13402000  1
  C  C123  1  0.95290000  0.63680000  0.03440000  1
  C  C124  1  0.95208000  0.26165000  0.14497000  1
  C  C125  1  0.95090000  0.40000000  0.66433000  1
  C  C126  1  0.94230000  0.92880000  0.09244000  1
  C  C127  1  0.94030000  0.86130000  0.74551000  1
  C  C128  1  0.93378000  0.50816000  0.59481000  1
  C  C129  1  0.92480000  0.05890000  0.61395000  1
  C  C130  1  0.92480000  0.06760000  0.54598000  1
  C  C131  1  0.92210000  0.42745000  0.60611000  1
  C  C132  1  0.90250000  0.71922000  0.74024000  1
  C  C133  1  0.86960000  0.27620000  0.42646000  1
  C  C134  1  0.86680000  0.19560000  0.41882000  1
  C  C135  1  0.86199000  0.86908000  0.72817000  1
  C  C136  1  0.85770000  0.93312000  0.06993000  1
  C  C137  1  0.84800000  0.20300000  0.88619000  1
  C  C138  1  0.84050000  0.00350000  0.04287000  1
  C  C139  1  0.82430000  0.72774000  0.72401000  1
  C  C140  1  0.80295000  0.80272000  0.71713000  1
  C  C141  1  0.80000000  0.30905000  0.41584000  1
  C  C142  1  0.79903000  0.55369000  0.53564000  1
  C  C143  1  0.79640000  0.86860000  0.07713000  1
  C  C144  1  0.79510000  0.14760000  0.40180000  1
  C  C145  1  0.78300000  0.62487000  0.56052000  1
  C  C146  1  0.78100000  0.68573000  0.19585000  1
  C  C147  1  0.77410000  0.31940000  0.89240000  1
  C  C148  1  0.77230000  0.23814000  0.89912000  1
  C  C149  1  0.76200000  0.01039000  0.02584000  1
  C  C150  1  0.73800000  0.48961000  0.52584000  1
  C  C151  1  0.72770000  0.26186000  0.39912000  1
  C  C152  1  0.72590000  0.18060000  0.39240000  1
  C  C153  1  0.71900000  0.81427000  0.69585000  1
  C  C154  1  0.71700000  0.87513000  0.06052000  1
  C  C155  1  0.70490000  0.35240000  0.90180000  1
  C  C156  1  0.70360000  0.63140000  0.57713000  1
  C  C157  1  0.70097000  0.94631000  0.03564000  1
  C  C158  1  0.70000000  0.19095000  0.91584000  1
  C  C159  1  0.69705000  0.69728000  0.21713000  1
  C  C160  1  0.67570000  0.77226000  0.22401000  1
  C  C161  1  0.65950000  0.49650000  0.54287000  1
  C  C162  1  0.65200000  0.29700000  0.38619000  1
  C  C163  1  0.64230000  0.56688000  0.56993000  1
  C  C164  1  0.63801000  0.63092000  0.22817000  1
  C  C165  1  0.63320000  0.30440000  0.91882000  1
  C  C166  1  0.63040000  0.22380000  0.92646000  1
  C  C167  1  0.59750000  0.78078000  0.24024000  1
  C  C168  1  0.57790000  0.07255000  0.10611000  1
  C  C169  1  0.57520000  0.44110000  0.11395000  1
  C  C170  1  0.57520000  0.43240000  0.04598000  1
  C  C171  1  0.56622000  0.99184000  0.09481000  1
  C  C172  1  0.55970000  0.63870000  0.24551000  1
  C  C173  1  0.55770000  0.57120000  0.59244000  1
  C  C174  1  0.54910000  0.10000000  0.16433000  1
  C  C175  1  0.54792000  0.23835000  0.64497000  1
  C  C176  1  0.54710000  0.86320000  0.53440000  1
  C  C177  1  0.54690000  0.15820000  0.63402000  1
  C  C178  1  0.54398000  0.37810000  0.15420000  1
  C  C179  1  0.54380000  0.36040000  0.01831000  1
  C  C180  1  0.54220000  0.38425000  0.22802000  1
  C  C181  1  0.53951000  0.71412000  0.25110000  1
  C  C182  1  0.53090000  0.28840000  0.59451000  1
  C  C183  1  0.52720000  0.91920000  0.72874000  1
  C  C184  1  0.52640000  0.93890000  0.14026000  1
  C  C185  1  0.52250000  0.12680000  0.57300000  1
  C  C186  1  0.51280000  0.30589000  0.12526000  1
  C  C187  1  0.51260000  0.29620000  0.05792000  1
  C  C188  1  0.50764000  0.04840000  0.20996000  1
  C  C189  1  0.50600000  0.25630000  0.53401000  1
  C  C190  1  0.50280000  0.03246000  0.80242000  1
  C  C191  1  0.50190000  0.82498000  0.47583000  1
  C  C192  1  0.49810000  0.17502000  0.52417000  1
  C  C193  1  0.49720000  0.96754000  0.19758000  1
  C  C194  1  0.49400000  0.74370000  0.46599000  1
  C  C195  1  0.49236000  0.95160000  0.79004000  1
  C  C196  1  0.48740000  0.70380000  0.94208000  1
  C  C197  1  0.48720000  0.69411000  0.87474000  1
  C  C198  1  0.47750000  0.87320000  0.42700000  1
  C  C199  1  0.47360000  0.06110000  0.85974000  1
  C  C200  1  0.47280000  0.08080000  0.27126000  1
  C  C201  1  0.46910000  0.71160000  0.40549000  1
  C  C202  1  0.46049000  0.28588000  0.74890000  1
  C  C203  1  0.45780000  0.61575000  0.77198000  1
  C  C204  1  0.45620000  0.63960000  0.98169000  1
  C  C205  1  0.45602000  0.62190000  0.84580000  1
  C  C206  1  0.45310000  0.84180000  0.36598000  1
  C  C207  1  0.45290000  0.13680000  0.46560000  1
  C  C208  1  0.45208000  0.76165000  0.35503000  1
  C  C209  1  0.45090000  0.90000000  0.83567000  1
  C  C210  1  0.44230000  0.42880000  0.40756000  1
  C  C211  1  0.44030000  0.36130000  0.75449000  1
  C  C212  1  0.43378000  0.00816000  0.90519000  1
  C  C213  1  0.42480000  0.56760000  0.95402000  1
  C  C214  1  0.42480000  0.55890000  0.88605000  1
  C  C215  1  0.42210000  0.92745000  0.89389000  1
  C  C216  1  0.40250000  0.21922000  0.75976000  1
  C  C217  1  0.36960000  0.77620000  0.07354000  1
  C  C218  1  0.36680000  0.69560000  0.08118000  1
  C  C219  1  0.36199000  0.36908000  0.77183000  1
  C  C220  1  0.35770000  0.43312000  0.43007000  1
  C  C221  1  0.34800000  0.70300000  0.61381000  1
  C  C222  1  0.34050000  0.50350000  0.45713000  1
  C  C223  1  0.32430000  0.22774000  0.77599000  1
  C  C224  1  0.30295000  0.30272000  0.78287000  1
  C  C225  1  0.30000000  0.80905000  0.08416000  1
  C  C226  1  0.29903000  0.05369000  0.96436000  1
  C  C227  1  0.29640000  0.36860000  0.42287000  1
  C  C228  1  0.29510000  0.64760000  0.09820000  1
  C  C229  1  0.28300000  0.12487000  0.93948000  1
  C  C230  1  0.28100000  0.18573000  0.30415000  1
  C  C231  1  0.27410000  0.81940000  0.60760000  1
  C  C232  1  0.27230000  0.73814000  0.60088000  1
  C  C233  1  0.26200000  0.51039000  0.47416000  1
  C  C234  1  0.23800000  0.98961000  0.97416000  1
  C  C235  1  0.22770000  0.76186000  0.10088000  1
  C  C236  1  0.22590000  0.68060000  0.10760000  1
  C  C237  1  0.21900000  0.31427000  0.80415000  1
  C  C238  1  0.21700000  0.37513000  0.43948000  1
  C  C239  1  0.20490000  0.85240000  0.59820000  1
  C  C240  1  0.20360000  0.13140000  0.92287000  1
  C  C241  1  0.20097000  0.44631000  0.46436000  1
  C  C242  1  0.20000000  0.69095000  0.58416000  1
  C  C243  1  0.19705000  0.19728000  0.28287000  1
  C  C244  1  0.17570000  0.27226000  0.27599000  1
  C  C245  1  0.15950000  0.99650000  0.95713000  1
  C  C246  1  0.15200000  0.79700000  0.11381000  1
  C  C247  1  0.14230000  0.06688000  0.93007000  1
  C  C248  1  0.13801000  0.13092000  0.27183000  1
  C  C249  1  0.13320000  0.80440000  0.58118000  1
  C  C250  1  0.13040000  0.72380000  0.57354000  1
  C  C251  1  0.09750000  0.28078000  0.25976000  1
  C  C252  1  0.07790000  0.57255000  0.39389000  1
  C  C253  1  0.07520000  0.93240000  0.45402000  1
  C  C254  1  0.07520000  0.94110000  0.38605000  1
  C  C255  1  0.06622000  0.49184000  0.40519000  1
  C  C256  1  0.05970000  0.13870000  0.25449000  1
  C  C257  1  0.05770000  0.07120000  0.90756000  1
  C  C258  1  0.04910000  0.60000000  0.33567000  1
  C  C259  1  0.04792000  0.73835000  0.85503000  1
  C  C260  1  0.04710000  0.36320000  0.96560000  1
  C  C261  1  0.04690000  0.65820000  0.86598000  1
  C  C262  1  0.04398000  0.87810000  0.34580000  1
  C  C263  1  0.04380000  0.86040000  0.48169000  1
  C  C264  1  0.04220000  0.88425000  0.27198000  1
  C  C265  1  0.03951000  0.21412000  0.24890000  1
  C  C266  1  0.03090000  0.78840000  0.90549000  1
  C  C267  1  0.02720000  0.41920000  0.77126000  1
  C  C268  1  0.02640000  0.43890000  0.35974000  1
  C  C269  1  0.02250000  0.62680000  0.92700000  1
  C  C270  1  0.01280000  0.80589000  0.37474000  1
  C  C271  1  0.01260000  0.79620000  0.44208000  1
  C  C272  1  0.00764000  0.54840000  0.29004000  1
  C  C273  1  0.00600000  0.75630000  0.96599000  1
  C  C274  1  0.00280000  0.53246000  0.69758000  1
  C  C275  1  0.00190000  0.32498000  0.02417000  1
  S  S276  1  0.95570000  0.15342000  0.43167000  1
  S  S277  1  0.93907000  0.22467000  0.22651000  1
  S  S278  1  0.90031000  0.54224000  0.51886000  1
  S  S279  1  0.59969000  0.95776000  0.01886000  1
  S  S280  1  0.56093000  0.27533000  0.72651000  1
  S  S281  1  0.54430000  0.34658000  0.93167000  1
  S  S282  1  0.45570000  0.65342000  0.06833000  1
  S  S283  1  0.43907000  0.72467000  0.27349000  1
  S  S284  1  0.40031000  0.04224000  0.98114000  1
  S  S285  1  0.09969000  0.45776000  0.48114000  1
  S  S286  1  0.06093000  0.77533000  0.77349000  1
  S  S287  1  0.04430000  0.84658000  0.56833000  1
  O  O288  1  0.99410000  0.17317000  0.75864000  1
  O  O289  1  0.99172000  0.99233000  0.09718000  1
  O  O290  1  0.98047000  0.65418000  0.22481000  1
  O  O291  1  0.97523000  0.78803000  0.58491000  1
  O  O292  1  0.96230000  0.86341000  0.10645000  1
  O  O293  1  0.94559000  0.61910000  0.50506000  1
  O  O294  1  0.94500000  0.07738000  0.40065000  1
  O  O295  1  0.93739000  0.53146000  0.18789000  1
  O  O296  1  0.93616000  0.56259000  0.03553000  1
  O  O297  1  0.92533000  0.67897000  0.07756000  1
  O  O298  1  0.92281000  0.05320000  0.75500000  1
  O  O299  1  0.91406000  0.28545000  0.26704000  1
  O  O300  1  0.91157000  0.24824000  0.87213000  1
  O  O301  1  0.89838000  0.47979000  0.47131000  1
  O  O302  1  0.89058000  0.14765000  0.22474000  1
  O  O303  1  0.83985000  0.12870000  0.89016000  1
  O  O304  1  0.83567000  0.74491000  0.19189000  1
  O  O305  1  0.78906000  0.61511000  0.18334000  1
  O  O306  1  0.71094000  0.88489000  0.68334000  1
  O  O307  1  0.66433000  0.75509000  0.69189000  1
  O  O308  1  0.66015000  0.37130000  0.39016000  1
  O  O309  1  0.60942000  0.35235000  0.72474000  1
  O  O310  1  0.60162000  0.02021000  0.97131000  1
  O  O311  1  0.58843000  0.25176000  0.37213000  1
  O  O312  1  0.58594000  0.21455000  0.76704000  1
  O  O313  1  0.57719000  0.44680000  0.25500000  1
  O  O314  1  0.57467000  0.82103000  0.57756000  1
  O  O315  1  0.56384000  0.93741000  0.53553000  1
  O  O316  1  0.56261000  0.96854000  0.68789000  1
  O  O317  1  0.55500000  0.42262000  0.90065000  1
  O  O318  1  0.55441000  0.88090000  0.00506000  1
  O  O319  1  0.53770000  0.63659000  0.60645000  1
  O  O320  1  0.52477000  0.71197000  0.08491000  1
  O  O321  1  0.51953000  0.84582000  0.72481000  1
  O  O322  1  0.50828000  0.50767000  0.59718000  1
  O  O323  1  0.50590000  0.32683000  0.25864000  1
  O  O324  1  0.49410000  0.67317000  0.74136000  1
  O  O325  1  0.49172000  0.49233000  0.40282000  1
  O  O326  1  0.48047000  0.15418000  0.27519000  1
  O  O327  1  0.47523000  0.28803000  0.91509000  1
  O  O328  1  0.46230000  0.36341000  0.39355000  1
  O  O329  1  0.44559000  0.11910000  0.99494000  1
  O  O330  1  0.44500000  0.57738000  0.09935000  1
  O  O331  1  0.43739000  0.03146000  0.31211000  1
  O  O332  1  0.43616000  0.06259000  0.46447000  1
  O  O333  1  0.42533000  0.17897000  0.42244000  1
  O  O334  1  0.42281000  0.55320000  0.74500000  1
  O  O335  1  0.41406000  0.78545000  0.23296000  1
  O  O336  1  0.41157000  0.74824000  0.62787000  1
  O  O337  1  0.39838000  0.97979000  0.02869000  1
  O  O338  1  0.39058000  0.64765000  0.27526000  1
  O  O339  1  0.33985000  0.62870000  0.60984000  1
  O  O340  1  0.33567000  0.24491000  0.30811000  1
  O  O341  1  0.28906000  0.11511000  0.31666000  1
  O  O342  1  0.21094000  0.38489000  0.81666000  1
  O  O343  1  0.16433000  0.25509000  0.80811000  1
  O  O344  1  0.16015000  0.87130000  0.10984000  1
  O  O345  1  0.10942000  0.85235000  0.77526000  1
  O  O346  1  0.10162000  0.52021000  0.52869000  1
  O  O347  1  0.08843000  0.75176000  0.12787000  1
  O  O348  1  0.08594000  0.71455000  0.73296000  1
  O  O349  1  0.07719000  0.94680000  0.24500000  1
  O  O350  1  0.07467000  0.32103000  0.92244000  1
  O  O351  1  0.06384000  0.43741000  0.96447000  1
  O  O352  1  0.06261000  0.46854000  0.81211000  1
  O  O353  1  0.05500000  0.92262000  0.59935000  1
  O  O354  1  0.05441000  0.38090000  0.49494000  1
  O  O355  1  0.03770000  0.13659000  0.89355000  1
  O  O356  1  0.02477000  0.21197000  0.41509000  1
  O  O357  1  0.01953000  0.34582000  0.77519000  1
  O  O358  1  0.00828000  0.00767000  0.90282000  1
  O  O359  1  0.00590000  0.82683000  0.24136000  1
