# generated using pymatgen
data_LiZnH3(C3O2)3
_symmetry_space_group_name_H-M   'P 1'
_cell_length_a   10.78330000
_cell_length_b   16.63320000
_cell_length_c   16.63320000
_cell_angle_alpha   90.00000000
_cell_angle_beta   90.00000000
_cell_angle_gamma   90.00000000
_symmetry_Int_Tables_number   1
_chemical_formula_structural   LiZnH3(C3O2)3
_chemical_formula_sum   'Li8 Zn8 H24 C72 O48'
_cell_volume   2983.34381838
_cell_formula_units_Z   8
loop_
 _symmetry_equiv_pos_site_id
 _symmetry_equiv_pos_as_xyz
  1  'x, y, z'
loop_
 _atom_site_type_symbol
 _atom_site_label
 _atom_site_symmetry_multiplicity
 _atom_site_fract_x
 _atom_site_fract_y
 _atom_site_fract_z
 _atom_site_occupancy
  Li  Li0  1  0.06070000  0.74420000  0.43240000  1
  Li  Li1  1  0.18930000  0.24420000  0.06760000  1
  Li  Li2  1  0.31070000  0.93240000  0.75580000  1
  Li  Li3  1  0.43930000  0.56760000  0.25580000  1
  Li  Li4  1  0.56070000  0.25580000  0.56760000  1
  Li  Li5  1  0.68930000  0.75580000  0.93240000  1
  Li  Li6  1  0.81070000  0.06760000  0.24420000  1
  Li  Li7  1  0.93930000  0.43240000  0.74420000  1
  Zn  Zn8  1  0.10041000  0.34790000  0.91480000  1
  Zn  Zn9  1  0.14959000  0.84790000  0.58520000  1
  Zn  Zn10  1  0.35041000  0.41480000  0.15210000  1
  Zn  Zn11  1  0.39959000  0.08520000  0.65210000  1
  Zn  Zn12  1  0.60041000  0.65210000  0.08520000  1
  Zn  Zn13  1  0.64959000  0.15210000  0.41480000  1
  Zn  Zn14  1  0.85041000  0.58520000  0.84790000  1
  Zn  Zn15  1  0.89959000  0.91480000  0.34790000  1
  H  H16  1  0.04280000  0.55520000  0.06710000  1
  H  H17  1  0.09780000  0.63410000  0.74990000  1
  H  H18  1  0.12350000  0.66880000  0.27210000  1
  H  H19  1  0.12650000  0.16880000  0.22790000  1
  H  H20  1  0.15220000  0.13410000  0.75010000  1
  H  H21  1  0.20720000  0.05520000  0.43290000  1
  H  H22  1  0.29280000  0.56710000  0.94480000  1
  H  H23  1  0.34780000  0.24990000  0.86590000  1
  H  H24  1  0.37350000  0.77210000  0.83120000  1
  H  H25  1  0.37650000  0.72790000  0.33120000  1
  H  H26  1  0.40220000  0.25010000  0.36590000  1
  H  H27  1  0.45720000  0.93290000  0.44480000  1
  H  H28  1  0.54280000  0.44480000  0.93290000  1
  H  H29  1  0.59780000  0.36590000  0.25010000  1
  H  H30  1  0.62350000  0.33120000  0.72790000  1
  H  H31  1  0.62650000  0.83120000  0.77210000  1
  H  H32  1  0.65220000  0.86590000  0.24990000  1
  H  H33  1  0.70720000  0.94480000  0.56710000  1
  H  H34  1  0.79280000  0.43290000  0.05520000  1
  H  H35  1  0.84780000  0.75010000  0.13410000  1
  H  H36  1  0.87350000  0.22790000  0.16880000  1
  H  H37  1  0.87650000  0.27210000  0.66880000  1
  H  H38  1  0.90220000  0.74990000  0.63410000  1
  H  H39  1  0.95720000  0.06710000  0.55520000  1
  C  C40  1  0.01680000  0.21300000  0.72000000  1
  C  C41  1  0.02630000  0.59590000  0.10390000  1
  C  C42  1  0.03770000  0.26900000  0.78790000  1
  C  C43  1  0.05050000  0.04400000  0.31000000  1
  C  C44  1  0.06910000  0.08910000  0.65080000  1
  C  C45  1  0.07490000  0.66420000  0.22620000  1
  C  C46  1  0.08960000  0.14380000  0.71300000  1
  C  C47  1  0.09710000  0.60230000  0.17410000  1
  C  C48  1  0.10800000  0.51360000  0.85520000  1
  C  C49  1  0.14200000  0.01360000  0.64480000  1
  C  C50  1  0.15290000  0.10230000  0.32590000  1
  C  C51  1  0.16040000  0.64380000  0.78700000  1
  C  C52  1  0.17510000  0.16420000  0.27380000  1
  C  C53  1  0.18090000  0.58910000  0.84920000  1
  C  C54  1  0.19950000  0.54400000  0.19000000  1
  C  C55  1  0.21230000  0.76900000  0.71210000  1
  C  C56  1  0.22370000  0.09590000  0.39610000  1
  C  C57  1  0.23320000  0.71300000  0.78000000  1
  C  C58  1  0.26680000  0.22000000  0.28700000  1
  C  C59  1  0.27630000  0.60390000  0.90410000  1
  C  C60  1  0.28770000  0.28790000  0.23100000  1
  C  C61  1  0.30050000  0.81000000  0.45600000  1
  C  C62  1  0.31910000  0.15080000  0.41090000  1
  C  C63  1  0.32490000  0.72620000  0.83580000  1
  C  C64  1  0.33960000  0.21300000  0.35620000  1
  C  C65  1  0.34710000  0.67410000  0.89770000  1
  C  C66  1  0.35800000  0.35520000  0.98640000  1
  C  C67  1  0.39200000  0.14480000  0.48640000  1
  C  C68  1  0.40290000  0.82590000  0.39770000  1
  C  C69  1  0.41040000  0.28700000  0.85620000  1
  C  C70  1  0.42510000  0.77380000  0.33580000  1
  C  C71  1  0.43090000  0.34920000  0.91090000  1
  C  C72  1  0.44950000  0.69000000  0.95600000  1
  C  C73  1  0.46230000  0.21210000  0.73100000  1
  C  C74  1  0.47370000  0.89610000  0.40410000  1
  C  C75  1  0.48320000  0.28000000  0.78700000  1
  C  C76  1  0.51680000  0.78700000  0.28000000  1
  C  C77  1  0.52630000  0.40410000  0.89610000  1
  C  C78  1  0.53770000  0.73100000  0.21210000  1
  C  C79  1  0.55050000  0.95600000  0.69000000  1
  C  C80  1  0.56910000  0.91090000  0.34920000  1
  C  C81  1  0.57490000  0.33580000  0.77380000  1
  C  C82  1  0.58960000  0.85620000  0.28700000  1
  C  C83  1  0.59710000  0.39770000  0.82590000  1
  C  C84  1  0.60800000  0.48640000  0.14480000  1
  C  C85  1  0.64200000  0.98640000  0.35520000  1
  C  C86  1  0.65290000  0.89770000  0.67410000  1
  C  C87  1  0.66040000  0.35620000  0.21300000  1
  C  C88  1  0.67510000  0.83580000  0.72620000  1
  C  C89  1  0.68090000  0.41090000  0.15080000  1
  C  C90  1  0.69950000  0.45600000  0.81000000  1
  C  C91  1  0.71230000  0.23100000  0.28790000  1
  C  C92  1  0.72370000  0.90410000  0.60390000  1
  C  C93  1  0.73320000  0.28700000  0.22000000  1
  C  C94  1  0.76680000  0.78000000  0.71300000  1
  C  C95  1  0.77630000  0.39610000  0.09590000  1
  C  C96  1  0.78770000  0.71210000  0.76900000  1
  C  C97  1  0.80050000  0.19000000  0.54400000  1
  C  C98  1  0.81910000  0.84920000  0.58910000  1
  C  C99  1  0.82490000  0.27380000  0.16420000  1
  C  C100  1  0.83960000  0.78700000  0.64380000  1
  C  C101  1  0.84710000  0.32590000  0.10230000  1
  C  C102  1  0.85800000  0.64480000  0.01360000  1
  C  C103  1  0.89200000  0.85520000  0.51360000  1
  C  C104  1  0.90290000  0.17410000  0.60230000  1
  C  C105  1  0.91040000  0.71300000  0.14380000  1
  C  C106  1  0.92510000  0.22620000  0.66420000  1
  C  C107  1  0.93090000  0.65080000  0.08910000  1
  C  C108  1  0.94950000  0.31000000  0.04400000  1
  C  C109  1  0.96230000  0.78790000  0.26900000  1
  C  C110  1  0.97370000  0.10390000  0.59590000  1
  C  C111  1  0.98320000  0.72000000  0.21300000  1
  O  O112  1  0.00020000  0.51102000  0.82570000  1
  O  O113  1  0.01410000  0.24820000  0.05150000  1
  O  O114  1  0.01690000  0.79000000  0.33420000  1
  O  O115  1  0.03600000  0.98830000  0.36310000  1
  O  O116  1  0.08810000  0.95410000  0.61390000  1
  O  O117  1  0.10990000  0.25000000  0.84540000  1
  O  O118  1  0.14010000  0.75000000  0.65460000  1
  O  O119  1  0.16190000  0.45410000  0.88610000  1
  O  O120  1  0.21400000  0.48830000  0.13690000  1
  O  O121  1  0.23310000  0.29000000  0.16580000  1
  O  O122  1  0.23590000  0.74820000  0.44850000  1
  O  O123  1  0.24980000  0.01102000  0.67430000  1
  O  O124  1  0.25020000  0.32570000  0.98898000  1
  O  O125  1  0.26410000  0.55150000  0.25180000  1
  O  O126  1  0.26690000  0.83420000  0.71000000  1
  O  O127  1  0.28600000  0.86310000  0.51170000  1
  O  O128  1  0.33810000  0.11390000  0.54590000  1
  O  O129  1  0.35990000  0.34540000  0.25000000  1
  O  O130  1  0.39010000  0.15460000  0.75000000  1
  O  O131  1  0.41190000  0.38610000  0.04590000  1
  O  O132  1  0.46400000  0.63690000  0.01170000  1
  O  O133  1  0.48310000  0.66580000  0.21000000  1
  O  O134  1  0.48590000  0.94850000  0.75180000  1
  O  O135  1  0.49980000  0.17430000  0.48898000  1
  O  O136  1  0.50020000  0.48898000  0.17430000  1
  O  O137  1  0.51410000  0.75180000  0.94850000  1
  O  O138  1  0.51690000  0.21000000  0.66580000  1
  O  O139  1  0.53600000  0.01170000  0.63690000  1
  O  O140  1  0.58810000  0.04590000  0.38610000  1
  O  O141  1  0.60990000  0.75000000  0.15460000  1
  O  O142  1  0.64010000  0.25000000  0.34540000  1
  O  O143  1  0.66190000  0.54590000  0.11390000  1
  O  O144  1  0.71400000  0.51170000  0.86310000  1
  O  O145  1  0.73310000  0.71000000  0.83420000  1
  O  O146  1  0.73590000  0.25180000  0.55150000  1
  O  O147  1  0.74980000  0.98898000  0.32570000  1
  O  O148  1  0.75020000  0.67430000  0.01102000  1
  O  O149  1  0.76410000  0.44850000  0.74820000  1
  O  O150  1  0.76690000  0.16580000  0.29000000  1
  O  O151  1  0.78600000  0.13690000  0.48830000  1
  O  O152  1  0.83810000  0.88610000  0.45410000  1
  O  O153  1  0.85990000  0.65460000  0.75000000  1
  O  O154  1  0.89010000  0.84540000  0.25000000  1
  O  O155  1  0.91190000  0.61390000  0.95410000  1
  O  O156  1  0.96400000  0.36310000  0.98830000  1
  O  O157  1  0.98310000  0.33420000  0.79000000  1
  O  O158  1  0.98590000  0.05150000  0.24820000  1
  O  O159  1  0.99980000  0.82570000  0.51102000  1
