# generated using pymatgen
data_AgH24(C3N)4
_symmetry_space_group_name_H-M   'P 1'
_cell_length_a   32.25184740
_cell_length_b   32.25184740
_cell_length_c   32.25184740
_cell_angle_alpha   60.00000000
_cell_angle_beta   60.00000000
_cell_angle_gamma   60.00000000
_symmetry_Int_Tables_number   1
_chemical_formula_structural   AgH24(C3N)4
_chemical_formula_sum   'Ag34 H816 C408 N136'
_cell_volume   23721.86285853
_cell_formula_units_Z   34
loop_
 _symmetry_equiv_pos_site_id
 _symmetry_equiv_pos_as_xyz
  1  'x, y, z'
loop_
 _atom_site_type_symbol
 _atom_site_label
 _atom_site_symmetry_multiplicity
 _atom_site_fract_x
 _atom_site_fract_y
 _atom_site_fract_z
 _atom_site_occupancy
  Ag  Ag1  1  0.37500000  0.37500000  0.37500000  1.0
  Ag  Ag5  1  0.62500000  0.62500000  0.62500000  1.0
  Ag  Ag9  1  0.28240000  0.28240000  0.65280000  1.0
  Ag  Ag10  1  0.28240000  0.65280000  0.28240000  1.0
  Ag  Ag11  1  0.65280000  0.28240000  0.28240000  1.0
  Ag  Ag12  1  0.28240000  0.28240000  0.28240000  1.0
  Ag  Ag22  1  0.71760000  0.71760000  0.34720000  1.0
  Ag  Ag23  1  0.71760000  0.34720000  0.71760000  1.0
  Ag  Ag24  1  0.71760000  0.71760000  0.71760000  1.0
  Ag  Ag25  1  0.34720000  0.71760000  0.71760000  1.0
  Ag  Ag41  1  0.12866000  0.12866000  0.73614000  1.0
  Ag  Ag43  1  0.50654000  0.73614000  0.12866000  1.0
  Ag  Ag45  1  0.73614000  0.50654000  0.12866000  1.0
  Ag  Ag47  1  0.12866000  0.12866000  0.50654000  1.0
  Ag  Ag51  1  0.12866000  0.73614000  0.12866000  1.0
  Ag  Ag54  1  0.73614000  0.12866000  0.50654000  1.0
  Ag  Ag56  1  0.50654000  0.12866000  0.73614000  1.0
  Ag  Ag58  1  0.12866000  0.50654000  0.12866000  1.0
  Ag  Ag62  1  0.73614000  0.12866000  0.12866000  1.0
  Ag  Ag64  1  0.12866000  0.50654000  0.73614000  1.0
  Ag  Ag66  1  0.12866000  0.73614000  0.50654000  1.0
  Ag  Ag68  1  0.50654000  0.12866000  0.12866000  1.0
  Ag  Ag72  1  0.49346000  0.87134000  0.26386000  1.0
  Ag  Ag74  1  0.87134000  0.26386000  0.87134000  1.0
  Ag  Ag77  1  0.87134000  0.49346000  0.87134000  1.0
  Ag  Ag81  1  0.26386000  0.87134000  0.49346000  1.0
  Ag  Ag83  1  0.49346000  0.26386000  0.87134000  1.0
  Ag  Ag85  1  0.87134000  0.87134000  0.49346000  1.0
  Ag  Ag89  1  0.87134000  0.87134000  0.26386000  1.0
  Ag  Ag91  1  0.26386000  0.49346000  0.87134000  1.0
  Ag  Ag93  1  0.49346000  0.87134000  0.87134000  1.0
  Ag  Ag97  1  0.87134000  0.49346000  0.26386000  1.0
  Ag  Ag99  1  0.87134000  0.26386000  0.49346000  1.0
  Ag  Ag101  1  0.26386000  0.87134000  0.87134000  1.0
  C  C1  1  0.15740000  0.23120000  0.67920000  1.0
  C  C2  1  0.19120000  0.26280000  0.66040000  1.0
  C  C3  1  0.17990000  0.10650000  0.63070000  1.0
  C  C4  1  0.21810000  0.02750000  0.75270000  1.0
  C  C5  1  0.16910000  0.04330000  0.83190000  1.0
  C  C6  1  0.14010000  0.01090000  0.80390000  1.0
  C  C25  1  0.43220000  0.67920000  0.23120000  1.0
  C  C26  1  0.38560000  0.66040000  0.26280000  1.0
  C  C27  1  0.58290000  0.63070000  0.10650000  1.0
  C  C28  1  0.50170000  0.75270000  0.02750000  1.0
  C  C29  1  0.45570000  0.83190000  0.04330000  1.0
  C  C30  1  0.54510000  0.80390000  0.01090000  1.0
  C  C49  1  0.67920000  0.43220000  0.15740000  1.0
  C  C50  1  0.66040000  0.38560000  0.19120000  1.0
  C  C51  1  0.63070000  0.58290000  0.17990000  1.0
  C  C52  1  0.75270000  0.50170000  0.21810000  1.0
  C  C53  1  0.83190000  0.45570000  0.16910000  1.0
  C  C54  1  0.80390000  0.54510000  0.14010000  1.0
  C  C73  1  0.23120000  0.15740000  0.43220000  1.0
  C  C74  1  0.26280000  0.19120000  0.38560000  1.0
  C  C75  1  0.10650000  0.17990000  0.58290000  1.0
  C  C76  1  0.02750000  0.21810000  0.50170000  1.0
  C  C77  1  0.04330000  0.16910000  0.45570000  1.0
  C  C78  1  0.01090000  0.14010000  0.54510000  1.0
  C  C97  1  0.23120000  0.67920000  0.15740000  1.0
  C  C98  1  0.26280000  0.66040000  0.19120000  1.0
  C  C99  1  0.10650000  0.63070000  0.17990000  1.0
  C  C100  1  0.02750000  0.75270000  0.21810000  1.0
  C  C101  1  0.04330000  0.83190000  0.16910000  1.0
  C  C102  1  0.01090000  0.80390000  0.14010000  1.0
  C  C121  1  0.67920000  0.23120000  0.43220000  1.0
  C  C122  1  0.66040000  0.26280000  0.38560000  1.0
  C  C123  1  0.63070000  0.10650000  0.58290000  1.0
  C  C124  1  0.75270000  0.02750000  0.50170000  1.0
  C  C125  1  0.83190000  0.04330000  0.45570000  1.0
  C  C126  1  0.80390000  0.01090000  0.54510000  1.0
  C  C145  1  0.43220000  0.15740000  0.67920000  1.0
  C  C146  1  0.38560000  0.19120000  0.66040000  1.0
  C  C147  1  0.58290000  0.17990000  0.63070000  1.0
  C  C148  1  0.50170000  0.21810000  0.75270000  1.0
  C  C149  1  0.45570000  0.16910000  0.83190000  1.0
  C  C150  1  0.54510000  0.14010000  0.80390000  1.0
  C  C169  1  0.15740000  0.43220000  0.23120000  1.0
  C  C170  1  0.19120000  0.38560000  0.26280000  1.0
  C  C171  1  0.17990000  0.58290000  0.10650000  1.0
  C  C172  1  0.21810000  0.50170000  0.02750000  1.0
  C  C173  1  0.16910000  0.45570000  0.04330000  1.0
  C  C174  1  0.14010000  0.54510000  0.01090000  1.0
  C  C193  1  0.67920000  0.15740000  0.23120000  1.0
  C  C194  1  0.66040000  0.19120000  0.26280000  1.0
  C  C195  1  0.63070000  0.17990000  0.10650000  1.0
  C  C196  1  0.75270000  0.21810000  0.02750000  1.0
  C  C197  1  0.83190000  0.16910000  0.04330000  1.0
  C  C198  1  0.80390000  0.14010000  0.01090000  1.0
  C  C217  1  0.23120000  0.43220000  0.67920000  1.0
  C  C218  1  0.26280000  0.38560000  0.66040000  1.0
  C  C219  1  0.10650000  0.58290000  0.63070000  1.0
  C  C220  1  0.02750000  0.50170000  0.75270000  1.0
  C  C221  1  0.04330000  0.45570000  0.83190000  1.0
  C  C222  1  0.01090000  0.54510000  0.80390000  1.0
  C  C241  1  0.15740000  0.67920000  0.43220000  1.0
  C  C242  1  0.19120000  0.66040000  0.38560000  1.0
  C  C243  1  0.17990000  0.63070000  0.58290000  1.0
  C  C244  1  0.21810000  0.75270000  0.50170000  1.0
  C  C245  1  0.16910000  0.83190000  0.45570000  1.0
  C  C246  1  0.14010000  0.80390000  0.54510000  1.0
  C  C265  1  0.43220000  0.23120000  0.15740000  1.0
  C  C266  1  0.38560000  0.26280000  0.19120000  1.0
  C  C267  1  0.58290000  0.10650000  0.17990000  1.0
  C  C268  1  0.50170000  0.02750000  0.21810000  1.0
  C  C269  1  0.45570000  0.04330000  0.16910000  1.0
  C  C270  1  0.54510000  0.01090000  0.14010000  1.0
  C  C289  1  0.56780000  0.76880000  0.32080000  1.0
  C  C290  1  0.61440000  0.73720000  0.33960000  1.0
  C  C291  1  0.41710000  0.89350000  0.36930000  1.0
  C  C292  1  0.49830000  0.97250000  0.24730000  1.0
  C  C293  1  0.54430000  0.95670000  0.16810000  1.0
  C  C294  1  0.45490000  0.98910000  0.19610000  1.0
  C  C313  1  0.84260000  0.32080000  0.76880000  1.0
  C  C314  1  0.80880000  0.33960000  0.73720000  1.0
  C  C315  1  0.82010000  0.36930000  0.89350000  1.0
  C  C316  1  0.78190000  0.24730000  0.97250000  1.0
  C  C317  1  0.83090000  0.16810000  0.95670000  1.0
  C  C318  1  0.85990000  0.19610000  0.98910000  1.0
  C  C337  1  0.76880000  0.56780000  0.84260000  1.0
  C  C338  1  0.73720000  0.61440000  0.80880000  1.0
  C  C339  1  0.89350000  0.41710000  0.82010000  1.0
  C  C340  1  0.97250000  0.49830000  0.78190000  1.0
  C  C341  1  0.95670000  0.54430000  0.83090000  1.0
  C  C342  1  0.98910000  0.45490000  0.85990000  1.0
  C  C361  1  0.32080000  0.84260000  0.56780000  1.0
  C  C362  1  0.33960000  0.80880000  0.61440000  1.0
  C  C363  1  0.36930000  0.82010000  0.41710000  1.0
  C  C364  1  0.24730000  0.78190000  0.49830000  1.0
  C  C365  1  0.16810000  0.83090000  0.54430000  1.0
  C  C366  1  0.19610000  0.85990000  0.45490000  1.0
  C  C385  1  0.56780000  0.32080000  0.84260000  1.0
  C  C386  1  0.61440000  0.33960000  0.80880000  1.0
  C  C387  1  0.41710000  0.36930000  0.82010000  1.0
  C  C388  1  0.49830000  0.24730000  0.78190000  1.0
  C  C389  1  0.54430000  0.16810000  0.83090000  1.0
  C  C390  1  0.45490000  0.19610000  0.85990000  1.0
  C  C409  1  0.84260000  0.76880000  0.56780000  1.0
  C  C410  1  0.80880000  0.73720000  0.61440000  1.0
  C  C411  1  0.82010000  0.89350000  0.41710000  1.0
  C  C412  1  0.78190000  0.97250000  0.49830000  1.0
  C  C413  1  0.83090000  0.95670000  0.54430000  1.0
  C  C414  1  0.85990000  0.98910000  0.45490000  1.0
  C  C433  1  0.76880000  0.84260000  0.32080000  1.0
  C  C434  1  0.73720000  0.80880000  0.33960000  1.0
  C  C435  1  0.89350000  0.82010000  0.36930000  1.0
  C  C436  1  0.97250000  0.78190000  0.24730000  1.0
  C  C437  1  0.95670000  0.83090000  0.16810000  1.0
  C  C438  1  0.98910000  0.85990000  0.19610000  1.0
  C  C457  1  0.32080000  0.56780000  0.76880000  1.0
  C  C458  1  0.33960000  0.61440000  0.73720000  1.0
  C  C459  1  0.36930000  0.41710000  0.89350000  1.0
  C  C460  1  0.24730000  0.49830000  0.97250000  1.0
  C  C461  1  0.16810000  0.54430000  0.95670000  1.0
  C  C462  1  0.19610000  0.45490000  0.98910000  1.0
  C  C481  1  0.56780000  0.84260000  0.76880000  1.0
  C  C482  1  0.61440000  0.80880000  0.73720000  1.0
  C  C483  1  0.41710000  0.82010000  0.89350000  1.0
  C  C484  1  0.49830000  0.78190000  0.97250000  1.0
  C  C485  1  0.54430000  0.83090000  0.95670000  1.0
  C  C486  1  0.45490000  0.85990000  0.98910000  1.0
  C  C505  1  0.84260000  0.56780000  0.32080000  1.0
  C  C506  1  0.80880000  0.61440000  0.33960000  1.0
  C  C507  1  0.82010000  0.41710000  0.36930000  1.0
  C  C508  1  0.78190000  0.49830000  0.24730000  1.0
  C  C509  1  0.83090000  0.54430000  0.16810000  1.0
  C  C510  1  0.85990000  0.45490000  0.19610000  1.0
  C  C529  1  0.76880000  0.32080000  0.56780000  1.0
  C  C530  1  0.73720000  0.33960000  0.61440000  1.0
  C  C531  1  0.89350000  0.36930000  0.41710000  1.0
  C  C532  1  0.97250000  0.24730000  0.49830000  1.0
  C  C533  1  0.95670000  0.16810000  0.54430000  1.0
  C  C534  1  0.98910000  0.19610000  0.45490000  1.0
  C  C553  1  0.32080000  0.76880000  0.84260000  1.0
  C  C554  1  0.33960000  0.73720000  0.80880000  1.0
  C  C555  1  0.36930000  0.89350000  0.82010000  1.0
  C  C556  1  0.24730000  0.97250000  0.78190000  1.0
  C  C557  1  0.16810000  0.95670000  0.83090000  1.0
  C  C558  1  0.19610000  0.98910000  0.85990000  1.0
  C  C577  1  0.84260000  0.76880000  0.32080000  1.0
  C  C578  1  0.80880000  0.73720000  0.33960000  1.0
  C  C579  1  0.82010000  0.89350000  0.36930000  1.0
  C  C580  1  0.78190000  0.97250000  0.24730000  1.0
  C  C581  1  0.83090000  0.95670000  0.16810000  1.0
  C  C582  1  0.85990000  0.98910000  0.19610000  1.0
  C  C601  1  0.56780000  0.32080000  0.76880000  1.0
  C  C602  1  0.61440000  0.33960000  0.73720000  1.0
  C  C603  1  0.41710000  0.36930000  0.89350000  1.0
  C  C604  1  0.49830000  0.24730000  0.97250000  1.0
  C  C605  1  0.54430000  0.16810000  0.95670000  1.0
  C  C606  1  0.45490000  0.19610000  0.98910000  1.0
  C  C625  1  0.32080000  0.56780000  0.84260000  1.0
  C  C626  1  0.33960000  0.61440000  0.80880000  1.0
  C  C627  1  0.36930000  0.41710000  0.82010000  1.0
  C  C628  1  0.24730000  0.49830000  0.78190000  1.0
  C  C629  1  0.16810000  0.54430000  0.83090000  1.0
  C  C630  1  0.19610000  0.45490000  0.85990000  1.0
  C  C649  1  0.76880000  0.84260000  0.56780000  1.0
  C  C650  1  0.73720000  0.80880000  0.61440000  1.0
  C  C651  1  0.89350000  0.82010000  0.41710000  1.0
  C  C652  1  0.97250000  0.78190000  0.49830000  1.0
  C  C653  1  0.95670000  0.83090000  0.54430000  1.0
  C  C654  1  0.98910000  0.85990000  0.45490000  1.0
  C  C673  1  0.76880000  0.32080000  0.84260000  1.0
  C  C674  1  0.73720000  0.33960000  0.80880000  1.0
  C  C675  1  0.89350000  0.36930000  0.82010000  1.0
  C  C676  1  0.97250000  0.24730000  0.78190000  1.0
  C  C677  1  0.95670000  0.16810000  0.83090000  1.0
  C  C678  1  0.98910000  0.19610000  0.85990000  1.0
  C  C697  1  0.32080000  0.76880000  0.56780000  1.0
  C  C698  1  0.33960000  0.73720000  0.61440000  1.0
  C  C699  1  0.36930000  0.89350000  0.41710000  1.0
  C  C700  1  0.24730000  0.97250000  0.49830000  1.0
  C  C701  1  0.16810000  0.95670000  0.54430000  1.0
  C  C702  1  0.19610000  0.98910000  0.45490000  1.0
  C  C721  1  0.56780000  0.84260000  0.32080000  1.0
  C  C722  1  0.61440000  0.80880000  0.33960000  1.0
  C  C723  1  0.41710000  0.82010000  0.36930000  1.0
  C  C724  1  0.49830000  0.78190000  0.24730000  1.0
  C  C725  1  0.54430000  0.83090000  0.16810000  1.0
  C  C726  1  0.45490000  0.85990000  0.19610000  1.0
  C  C745  1  0.84260000  0.56780000  0.76880000  1.0
  C  C746  1  0.80880000  0.61440000  0.73720000  1.0
  C  C747  1  0.82010000  0.41710000  0.89350000  1.0
  C  C748  1  0.78190000  0.49830000  0.97250000  1.0
  C  C749  1  0.83090000  0.54430000  0.95670000  1.0
  C  C750  1  0.85990000  0.45490000  0.98910000  1.0
  C  C769  1  0.32080000  0.84260000  0.76880000  1.0
  C  C770  1  0.33960000  0.80880000  0.73720000  1.0
  C  C771  1  0.36930000  0.82010000  0.89350000  1.0
  C  C772  1  0.24730000  0.78190000  0.97250000  1.0
  C  C773  1  0.16810000  0.83090000  0.95670000  1.0
  C  C774  1  0.19610000  0.85990000  0.98910000  1.0
  C  C793  1  0.76880000  0.56780000  0.32080000  1.0
  C  C794  1  0.73720000  0.61440000  0.33960000  1.0
  C  C795  1  0.89350000  0.41710000  0.36930000  1.0
  C  C796  1  0.97250000  0.49830000  0.24730000  1.0
  C  C797  1  0.95670000  0.54430000  0.16810000  1.0
  C  C798  1  0.98910000  0.45490000  0.19610000  1.0
  C  C817  1  0.84260000  0.32080000  0.56780000  1.0
  C  C818  1  0.80880000  0.33960000  0.61440000  1.0
  C  C819  1  0.82010000  0.36930000  0.41710000  1.0
  C  C820  1  0.78190000  0.24730000  0.49830000  1.0
  C  C821  1  0.83090000  0.16810000  0.54430000  1.0
  C  C822  1  0.85990000  0.19610000  0.45490000  1.0
  C  C841  1  0.56780000  0.76880000  0.84260000  1.0
  C  C842  1  0.61440000  0.73720000  0.80880000  1.0
  C  C843  1  0.41710000  0.89350000  0.82010000  1.0
  C  C844  1  0.49830000  0.97250000  0.78190000  1.0
  C  C845  1  0.54430000  0.95670000  0.83090000  1.0
  C  C846  1  0.45490000  0.98910000  0.85990000  1.0
  C  C865  1  0.43220000  0.23120000  0.67920000  1.0
  C  C866  1  0.38560000  0.26280000  0.66040000  1.0
  C  C867  1  0.58290000  0.10650000  0.63070000  1.0
  C  C868  1  0.50170000  0.02750000  0.75270000  1.0
  C  C869  1  0.45570000  0.04330000  0.83190000  1.0
  C  C870  1  0.54510000  0.01090000  0.80390000  1.0
  C  C889  1  0.15740000  0.67920000  0.23120000  1.0
  C  C890  1  0.19120000  0.66040000  0.26280000  1.0
  C  C891  1  0.17990000  0.63070000  0.10650000  1.0
  C  C892  1  0.21810000  0.75270000  0.02750000  1.0
  C  C893  1  0.16910000  0.83190000  0.04330000  1.0
  C  C894  1  0.14010000  0.80390000  0.01090000  1.0
  C  C913  1  0.23120000  0.43220000  0.15740000  1.0
  C  C914  1  0.26280000  0.38560000  0.19120000  1.0
  C  C915  1  0.10650000  0.58290000  0.17990000  1.0
  C  C916  1  0.02750000  0.50170000  0.21810000  1.0
  C  C917  1  0.04330000  0.45570000  0.16910000  1.0
  C  C918  1  0.01090000  0.54510000  0.14010000  1.0
  C  C937  1  0.67920000  0.15740000  0.43220000  1.0
  C  C938  1  0.66040000  0.19120000  0.38560000  1.0
  C  C939  1  0.63070000  0.17990000  0.58290000  1.0
  C  C940  1  0.75270000  0.21810000  0.50170000  1.0
  C  C941  1  0.83190000  0.16910000  0.45570000  1.0
  C  C942  1  0.80390000  0.14010000  0.54510000  1.0
  C  C961  1  0.43220000  0.67920000  0.15740000  1.0
  C  C962  1  0.38560000  0.66040000  0.19120000  1.0
  C  C963  1  0.58290000  0.63070000  0.17990000  1.0
  C  C964  1  0.50170000  0.75270000  0.21810000  1.0
  C  C965  1  0.45570000  0.83190000  0.16910000  1.0
  C  C966  1  0.54510000  0.80390000  0.14010000  1.0
  C  C985  1  0.15740000  0.23120000  0.43220000  1.0
  C  C986  1  0.19120000  0.26280000  0.38560000  1.0
  C  C987  1  0.17990000  0.10650000  0.58290000  1.0
  C  C988  1  0.21810000  0.02750000  0.50170000  1.0
  C  C989  1  0.16910000  0.04330000  0.45570000  1.0
  C  C990  1  0.14010000  0.01090000  0.54510000  1.0
  C  C1009  1  0.23120000  0.15740000  0.67920000  1.0
  C  C1010  1  0.26280000  0.19120000  0.66040000  1.0
  C  C1011  1  0.10650000  0.17990000  0.63070000  1.0
  C  C1012  1  0.02750000  0.21810000  0.75270000  1.0
  C  C1013  1  0.04330000  0.16910000  0.83190000  1.0
  C  C1014  1  0.01090000  0.14010000  0.80390000  1.0
  C  C1033  1  0.67920000  0.43220000  0.23120000  1.0
  C  C1034  1  0.66040000  0.38560000  0.26280000  1.0
  C  C1035  1  0.63070000  0.58290000  0.10650000  1.0
  C  C1036  1  0.75270000  0.50170000  0.02750000  1.0
  C  C1037  1  0.83190000  0.45570000  0.04330000  1.0
  C  C1038  1  0.80390000  0.54510000  0.01090000  1.0
  C  C1057  1  0.43220000  0.15740000  0.23120000  1.0
  C  C1058  1  0.38560000  0.19120000  0.26280000  1.0
  C  C1059  1  0.58290000  0.17990000  0.10650000  1.0
  C  C1060  1  0.50170000  0.21810000  0.02750000  1.0
  C  C1061  1  0.45570000  0.16910000  0.04330000  1.0
  C  C1062  1  0.54510000  0.14010000  0.01090000  1.0
  C  C1081  1  0.15740000  0.43220000  0.67920000  1.0
  C  C1082  1  0.19120000  0.38560000  0.66040000  1.0
  C  C1083  1  0.17990000  0.58290000  0.63070000  1.0
  C  C1084  1  0.21810000  0.50170000  0.75270000  1.0
  C  C1085  1  0.16910000  0.45570000  0.83190000  1.0
  C  C1086  1  0.14010000  0.54510000  0.80390000  1.0
  C  C1105  1  0.23120000  0.67920000  0.43220000  1.0
  C  C1106  1  0.26280000  0.66040000  0.38560000  1.0
  C  C1107  1  0.10650000  0.63070000  0.58290000  1.0
  C  C1108  1  0.02750000  0.75270000  0.50170000  1.0
  C  C1109  1  0.04330000  0.83190000  0.45570000  1.0
  C  C1110  1  0.01090000  0.80390000  0.54510000  1.0
  C  C1129  1  0.67920000  0.23120000  0.15740000  1.0
  C  C1130  1  0.66040000  0.26280000  0.19120000  1.0
  C  C1131  1  0.63070000  0.10650000  0.17990000  1.0
  C  C1132  1  0.75270000  0.02750000  0.21810000  1.0
  C  C1133  1  0.83190000  0.04330000  0.16910000  1.0
  C  C1134  1  0.80390000  0.01090000  0.14010000  1.0
  C  C1153  1  0.28930000  0.36370000  0.48330000  1.0
  C  C1154  1  0.26960000  0.34340000  0.54360000  1.0
  C  C1159  1  0.36370000  0.48330000  0.36370000  1.0
  C  C1160  1  0.34340000  0.54360000  0.34340000  1.0
  C  C1167  1  0.48330000  0.36370000  0.28930000  1.0
  C  C1168  1  0.54360000  0.34340000  0.26960000  1.0
  C  C1171  1  0.36370000  0.28930000  0.36370000  1.0
  C  C1172  1  0.34340000  0.26960000  0.34340000  1.0
  C  C1175  1  0.36370000  0.48330000  0.28930000  1.0
  C  C1176  1  0.34340000  0.54360000  0.26960000  1.0
  C  C1181  1  0.48330000  0.36370000  0.36370000  1.0
  C  C1182  1  0.54360000  0.34340000  0.34340000  1.0
  C  C1189  1  0.36370000  0.28930000  0.48330000  1.0
  C  C1190  1  0.34340000  0.26960000  0.54360000  1.0
  C  C1193  1  0.28930000  0.36370000  0.36370000  1.0
  C  C1194  1  0.26960000  0.34340000  0.34340000  1.0
  C  C1199  1  0.48330000  0.28930000  0.36370000  1.0
  C  C1200  1  0.54360000  0.26960000  0.34340000  1.0
  C  C1205  1  0.36370000  0.36370000  0.48330000  1.0
  C  C1206  1  0.34340000  0.34340000  0.54360000  1.0
  C  C1213  1  0.28930000  0.48330000  0.36370000  1.0
  C  C1214  1  0.26960000  0.54360000  0.34340000  1.0
  C  C1217  1  0.36370000  0.36370000  0.28930000  1.0
  C  C1218  1  0.34340000  0.34340000  0.26960000  1.0
  C  C1223  1  0.63630000  0.63630000  0.51670000  1.0
  C  C1224  1  0.65660000  0.65660000  0.45640000  1.0
  C  C1231  1  0.71070000  0.51670000  0.63630000  1.0
  C  C1232  1  0.73040000  0.45640000  0.65660000  1.0
  C  C1235  1  0.63630000  0.63630000  0.71070000  1.0
  C  C1236  1  0.65660000  0.65660000  0.73040000  1.0
  C  C1241  1  0.51670000  0.71070000  0.63630000  1.0
  C  C1242  1  0.45640000  0.73040000  0.65660000  1.0
  C  C1245  1  0.63630000  0.51670000  0.71070000  1.0
  C  C1246  1  0.65660000  0.45640000  0.73040000  1.0
  C  C1249  1  0.71070000  0.63630000  0.63630000  1.0
  C  C1250  1  0.73040000  0.65660000  0.65660000  1.0
  C  C1255  1  0.63630000  0.71070000  0.51670000  1.0
  C  C1256  1  0.65660000  0.73040000  0.45640000  1.0
  C  C1259  1  0.51670000  0.63630000  0.63630000  1.0
  C  C1260  1  0.45640000  0.65660000  0.65660000  1.0
  C  C1267  1  0.63630000  0.71070000  0.63630000  1.0
  C  C1268  1  0.65660000  0.73040000  0.65660000  1.0
  C  C1271  1  0.71070000  0.63630000  0.51670000  1.0
  C  C1272  1  0.73040000  0.65660000  0.45640000  1.0
  C  C1275  1  0.63630000  0.51670000  0.63630000  1.0
  C  C1276  1  0.65660000  0.45640000  0.65660000  1.0
  C  C1283  1  0.51670000  0.63630000  0.71070000  1.0
  C  C1284  1  0.45640000  0.65660000  0.73040000  1.0
  C  C1345  1  0.21320000  0.21320000  0.73560000  1.0
  C  C1346  1  0.18070000  0.18070000  0.75310000  1.0
  C  C1347  1  0.09730000  0.09730000  0.67550000  1.0
  C  C1351  1  0.33800000  0.73560000  0.21320000  1.0
  C  C1352  1  0.38550000  0.75310000  0.18070000  1.0
  C  C1353  1  0.62990000  0.67550000  0.09730000  1.0
  C  C1357  1  0.73560000  0.33800000  0.21320000  1.0
  C  C1358  1  0.75310000  0.38550000  0.18070000  1.0
  C  C1359  1  0.67550000  0.62990000  0.09730000  1.0
  C  C1363  1  0.21320000  0.21320000  0.33800000  1.0
  C  C1364  1  0.18070000  0.18070000  0.38550000  1.0
  C  C1365  1  0.09730000  0.09730000  0.62990000  1.0
  C  C1375  1  0.21320000  0.73560000  0.21320000  1.0
  C  C1376  1  0.18070000  0.75310000  0.18070000  1.0
  C  C1377  1  0.09730000  0.67550000  0.09730000  1.0
  C  C1384  1  0.73560000  0.21320000  0.33800000  1.0
  C  C1385  1  0.75310000  0.18070000  0.38550000  1.0
  C  C1386  1  0.67550000  0.09730000  0.62990000  1.0
  C  C1390  1  0.33800000  0.21320000  0.73560000  1.0
  C  C1391  1  0.38550000  0.18070000  0.75310000  1.0
  C  C1392  1  0.62990000  0.09730000  0.67550000  1.0
  C  C1396  1  0.21320000  0.33800000  0.21320000  1.0
  C  C1397  1  0.18070000  0.38550000  0.18070000  1.0
  C  C1398  1  0.09730000  0.62990000  0.09730000  1.0
  C  C1408  1  0.73560000  0.21320000  0.21320000  1.0
  C  C1409  1  0.75310000  0.18070000  0.18070000  1.0
  C  C1410  1  0.67550000  0.09730000  0.09730000  1.0
  C  C1414  1  0.21320000  0.33800000  0.73560000  1.0
  C  C1415  1  0.18070000  0.38550000  0.75310000  1.0
  C  C1416  1  0.09730000  0.62990000  0.67550000  1.0
  C  C1420  1  0.21320000  0.73560000  0.33800000  1.0
  C  C1421  1  0.18070000  0.75310000  0.38550000  1.0
  C  C1422  1  0.09730000  0.67550000  0.62990000  1.0
  C  C1426  1  0.33800000  0.21320000  0.21320000  1.0
  C  C1427  1  0.38550000  0.18070000  0.18070000  1.0
  C  C1428  1  0.62990000  0.09730000  0.09730000  1.0
  C  C1438  1  0.66200000  0.78680000  0.26440000  1.0
  C  C1439  1  0.61450000  0.81930000  0.24690000  1.0
  C  C1440  1  0.37010000  0.90270000  0.32450000  1.0
  C  C1444  1  0.78680000  0.26440000  0.78680000  1.0
  C  C1445  1  0.81930000  0.24690000  0.81930000  1.0
  C  C1446  1  0.90270000  0.32450000  0.90270000  1.0
  C  C1453  1  0.78680000  0.66200000  0.78680000  1.0
  C  C1454  1  0.81930000  0.61450000  0.81930000  1.0
  C  C1455  1  0.90270000  0.37010000  0.90270000  1.0
  C  C1465  1  0.26440000  0.78680000  0.66200000  1.0
  C  C1466  1  0.24690000  0.81930000  0.61450000  1.0
  C  C1467  1  0.32450000  0.90270000  0.37010000  1.0
  C  C1471  1  0.66200000  0.26440000  0.78680000  1.0
  C  C1472  1  0.61450000  0.24690000  0.81930000  1.0
  C  C1473  1  0.37010000  0.32450000  0.90270000  1.0
  C  C1477  1  0.78680000  0.78680000  0.66200000  1.0
  C  C1478  1  0.81930000  0.81930000  0.61450000  1.0
  C  C1479  1  0.90270000  0.90270000  0.37010000  1.0
  C  C1489  1  0.78680000  0.78680000  0.26440000  1.0
  C  C1490  1  0.81930000  0.81930000  0.24690000  1.0
  C  C1491  1  0.90270000  0.90270000  0.32450000  1.0
  C  C1495  1  0.26440000  0.66200000  0.78680000  1.0
  C  C1496  1  0.24690000  0.61450000  0.81930000  1.0
  C  C1497  1  0.32450000  0.37010000  0.90270000  1.0
  C  C1501  1  0.66200000  0.78680000  0.78680000  1.0
  C  C1502  1  0.61450000  0.81930000  0.81930000  1.0
  C  C1503  1  0.37010000  0.90270000  0.90270000  1.0
  C  C1513  1  0.78680000  0.66200000  0.26440000  1.0
  C  C1514  1  0.81930000  0.61450000  0.24690000  1.0
  C  C1515  1  0.90270000  0.37010000  0.32450000  1.0
  C  C1519  1  0.78680000  0.26440000  0.66200000  1.0
  C  C1520  1  0.81930000  0.24690000  0.61450000  1.0
  C  C1521  1  0.90270000  0.32450000  0.37010000  1.0
  C  C1525  1  0.26440000  0.78680000  0.78680000  1.0
  C  C1526  1  0.24690000  0.81930000  0.81930000  1.0
  C  C1527  1  0.32450000  0.90270000  0.90270000  1.0
  H  H1  1  0.27650000  0.35150000  0.47070000  1.0
  H  H2  1  0.24840000  0.37240000  0.55640000  1.0
  H  H3  1  0.19210000  0.24190000  0.74890000  1.0
  H  H4  1  0.19550000  0.14570000  0.77430000  1.0
  H  H5  1  0.12250000  0.24710000  0.69970000  1.0
  H  H6  1  0.15530000  0.23110000  0.64970000  1.0
  H  H7  1  0.20490000  0.27470000  0.62290000  1.0
  H  H8  1  0.17040000  0.29300000  0.67140000  1.0
  H  H9  1  0.19550000  0.07130000  0.65070000  1.0
  H  H10  1  0.20080000  0.12660000  0.62040000  1.0
  H  H11  1  0.11140000  0.06180000  0.69620000  1.0
  H  H12  1  0.23630000  0.05070000  0.74090000  1.0
  H  H13  1  0.21710000  0.02730000  0.72270000  1.0
  H  H14  1  0.13430000  0.05550000  0.85470000  1.0
  H  H15  1  0.18750000  0.06570000  0.82190000  1.0
  H  H16  1  0.13640000  0.01160000  0.77480000  1.0
  H  H17  1  0.10560000  0.02260000  0.82760000  1.0
  H  H69  1  0.40130000  0.47070000  0.35150000  1.0
  H  H70  1  0.32280000  0.55640000  0.37240000  1.0
  H  H71  1  0.31710000  0.74890000  0.24190000  1.0
  H  H72  1  0.38450000  0.77430000  0.14570000  1.0
  H  H73  1  0.43070000  0.69970000  0.24710000  1.0
  H  H74  1  0.46390000  0.64970000  0.23110000  1.0
  H  H75  1  0.39750000  0.62290000  0.27470000  1.0
  H  H76  1  0.36520000  0.67140000  0.29300000  1.0
  H  H77  1  0.58250000  0.65070000  0.07130000  1.0
  H  H78  1  0.55220000  0.62040000  0.12660000  1.0
  H  H79  1  0.63060000  0.69620000  0.06180000  1.0
  H  H80  1  0.47210000  0.74090000  0.05070000  1.0
  H  H81  1  0.53290000  0.72270000  0.02730000  1.0
  H  H82  1  0.45550000  0.85470000  0.05550000  1.0
  H  H83  1  0.42490000  0.82190000  0.06570000  1.0
  H  H84  1  0.57720000  0.77480000  0.01160000  1.0
  H  H85  1  0.54420000  0.82760000  0.02260000  1.0
  H  H137  1  0.47070000  0.40130000  0.27650000  1.0
  H  H138  1  0.55640000  0.32280000  0.24840000  1.0
  H  H139  1  0.74890000  0.31710000  0.19210000  1.0
  H  H140  1  0.77430000  0.38450000  0.19550000  1.0
  H  H141  1  0.69970000  0.43070000  0.12250000  1.0
  H  H142  1  0.64970000  0.46390000  0.15530000  1.0
  H  H143  1  0.62290000  0.39750000  0.20490000  1.0
  H  H144  1  0.67140000  0.36520000  0.17040000  1.0
  H  H145  1  0.65070000  0.58250000  0.19550000  1.0
  H  H146  1  0.62040000  0.55220000  0.20080000  1.0
  H  H147  1  0.69620000  0.63060000  0.11140000  1.0
  H  H148  1  0.74090000  0.47210000  0.23630000  1.0
  H  H149  1  0.72270000  0.53290000  0.21710000  1.0
  H  H150  1  0.85470000  0.45550000  0.13430000  1.0
  H  H151  1  0.82190000  0.42490000  0.18750000  1.0
  H  H152  1  0.77480000  0.57720000  0.13640000  1.0
  H  H153  1  0.82760000  0.54420000  0.10560000  1.0
  H  H205  1  0.35150000  0.27650000  0.40130000  1.0
  H  H206  1  0.37240000  0.24840000  0.32280000  1.0
  H  H207  1  0.24190000  0.19210000  0.31710000  1.0
  H  H208  1  0.14570000  0.19550000  0.38450000  1.0
  H  H209  1  0.24710000  0.12250000  0.43070000  1.0
  H  H210  1  0.23110000  0.15530000  0.46390000  1.0
  H  H211  1  0.27470000  0.20490000  0.39750000  1.0
  H  H212  1  0.29300000  0.17040000  0.36520000  1.0
  H  H213  1  0.07130000  0.19550000  0.58250000  1.0
  H  H214  1  0.12660000  0.20080000  0.55220000  1.0
  H  H215  1  0.06180000  0.11140000  0.63060000  1.0
  H  H216  1  0.05070000  0.23630000  0.47210000  1.0
  H  H217  1  0.02730000  0.21710000  0.53290000  1.0
  H  H218  1  0.05550000  0.13430000  0.45550000  1.0
  H  H219  1  0.06570000  0.18750000  0.42490000  1.0
  H  H220  1  0.01160000  0.13640000  0.57720000  1.0
  H  H221  1  0.02260000  0.10560000  0.54420000  1.0
  H  H273  1  0.35150000  0.47070000  0.27650000  1.0
  H  H274  1  0.37240000  0.55640000  0.24840000  1.0
  H  H275  1  0.24190000  0.74890000  0.19210000  1.0
  H  H276  1  0.14570000  0.77430000  0.19550000  1.0
  H  H277  1  0.24710000  0.69970000  0.12250000  1.0
  H  H278  1  0.23110000  0.64970000  0.15530000  1.0
  H  H279  1  0.27470000  0.62290000  0.20490000  1.0
  H  H280  1  0.29300000  0.67140000  0.17040000  1.0
  H  H281  1  0.07130000  0.65070000  0.19550000  1.0
  H  H282  1  0.12660000  0.62040000  0.20080000  1.0
  H  H283  1  0.06180000  0.69620000  0.11140000  1.0
  H  H284  1  0.05070000  0.74090000  0.23630000  1.0
  H  H285  1  0.02730000  0.72270000  0.21710000  1.0
  H  H286  1  0.05550000  0.85470000  0.13430000  1.0
  H  H287  1  0.06570000  0.82190000  0.18750000  1.0
  H  H288  1  0.01160000  0.77480000  0.13640000  1.0
  H  H289  1  0.02260000  0.82760000  0.10560000  1.0
  H  H341  1  0.47070000  0.35150000  0.40130000  1.0
  H  H342  1  0.55640000  0.37240000  0.32280000  1.0
  H  H343  1  0.74890000  0.24190000  0.31710000  1.0
  H  H344  1  0.77430000  0.14570000  0.38450000  1.0
  H  H345  1  0.69970000  0.24710000  0.43070000  1.0
  H  H346  1  0.64970000  0.23110000  0.46390000  1.0
  H  H347  1  0.62290000  0.27470000  0.39750000  1.0
  H  H348  1  0.67140000  0.29300000  0.36520000  1.0
  H  H349  1  0.65070000  0.07130000  0.58250000  1.0
  H  H350  1  0.62040000  0.12660000  0.55220000  1.0
  H  H351  1  0.69620000  0.06180000  0.63060000  1.0
  H  H352  1  0.74090000  0.05070000  0.47210000  1.0
  H  H353  1  0.72270000  0.02730000  0.53290000  1.0
  H  H354  1  0.85470000  0.05550000  0.45550000  1.0
  H  H355  1  0.82190000  0.06570000  0.42490000  1.0
  H  H356  1  0.77480000  0.01160000  0.57720000  1.0
  H  H357  1  0.82760000  0.02260000  0.54420000  1.0
  H  H409  1  0.40130000  0.27650000  0.47070000  1.0
  H  H410  1  0.32280000  0.24840000  0.55640000  1.0
  H  H411  1  0.31710000  0.19210000  0.74890000  1.0
  H  H412  1  0.38450000  0.19550000  0.77430000  1.0
  H  H413  1  0.43070000  0.12250000  0.69970000  1.0
  H  H414  1  0.46390000  0.15530000  0.64970000  1.0
  H  H415  1  0.39750000  0.20490000  0.62290000  1.0
  H  H416  1  0.36520000  0.17040000  0.67140000  1.0
  H  H417  1  0.58250000  0.19550000  0.65070000  1.0
  H  H418  1  0.55220000  0.20080000  0.62040000  1.0
  H  H419  1  0.63060000  0.11140000  0.69620000  1.0
  H  H420  1  0.47210000  0.23630000  0.74090000  1.0
  H  H421  1  0.53290000  0.21710000  0.72270000  1.0
  H  H422  1  0.45550000  0.13430000  0.85470000  1.0
  H  H423  1  0.42490000  0.18750000  0.82190000  1.0
  H  H424  1  0.57720000  0.13640000  0.77480000  1.0
  H  H425  1  0.54420000  0.10560000  0.82760000  1.0
  H  H477  1  0.27650000  0.40130000  0.35150000  1.0
  H  H478  1  0.24840000  0.32280000  0.37240000  1.0
  H  H479  1  0.19210000  0.31710000  0.24190000  1.0
  H  H480  1  0.19550000  0.38450000  0.14570000  1.0
  H  H481  1  0.12250000  0.43070000  0.24710000  1.0
  H  H482  1  0.15530000  0.46390000  0.23110000  1.0
  H  H483  1  0.20490000  0.39750000  0.27470000  1.0
  H  H484  1  0.17040000  0.36520000  0.29300000  1.0
  H  H485  1  0.19550000  0.58250000  0.07130000  1.0
  H  H486  1  0.20080000  0.55220000  0.12660000  1.0
  H  H487  1  0.11140000  0.63060000  0.06180000  1.0
  H  H488  1  0.23630000  0.47210000  0.05070000  1.0
  H  H489  1  0.21710000  0.53290000  0.02730000  1.0
  H  H490  1  0.13430000  0.45550000  0.05550000  1.0
  H  H491  1  0.18750000  0.42490000  0.06570000  1.0
  H  H492  1  0.13640000  0.57720000  0.01160000  1.0
  H  H493  1  0.10560000  0.54420000  0.02260000  1.0
  H  H545  1  0.47070000  0.27650000  0.35150000  1.0
  H  H546  1  0.55640000  0.24840000  0.37240000  1.0
  H  H547  1  0.74890000  0.19210000  0.24190000  1.0
  H  H548  1  0.77430000  0.19550000  0.14570000  1.0
  H  H549  1  0.69970000  0.12250000  0.24710000  1.0
  H  H550  1  0.64970000  0.15530000  0.23110000  1.0
  H  H551  1  0.62290000  0.20490000  0.27470000  1.0
  H  H552  1  0.67140000  0.17040000  0.29300000  1.0
  H  H553  1  0.65070000  0.19550000  0.07130000  1.0
  H  H554  1  0.62040000  0.20080000  0.12660000  1.0
  H  H555  1  0.69620000  0.11140000  0.06180000  1.0
  H  H556  1  0.74090000  0.23630000  0.05070000  1.0
  H  H557  1  0.72270000  0.21710000  0.02730000  1.0
  H  H558  1  0.85470000  0.13430000  0.05550000  1.0
  H  H559  1  0.82190000  0.18750000  0.06570000  1.0
  H  H560  1  0.77480000  0.13640000  0.01160000  1.0
  H  H561  1  0.82760000  0.10560000  0.02260000  1.0
  H  H613  1  0.35150000  0.40130000  0.47070000  1.0
  H  H614  1  0.37240000  0.32280000  0.55640000  1.0
  H  H615  1  0.24190000  0.31710000  0.74890000  1.0
  H  H616  1  0.14570000  0.38450000  0.77430000  1.0
  H  H617  1  0.24710000  0.43070000  0.69970000  1.0
  H  H618  1  0.23110000  0.46390000  0.64970000  1.0
  H  H619  1  0.27470000  0.39750000  0.62290000  1.0
  H  H620  1  0.29300000  0.36520000  0.67140000  1.0
  H  H621  1  0.07130000  0.58250000  0.65070000  1.0
  H  H622  1  0.12660000  0.55220000  0.62040000  1.0
  H  H623  1  0.06180000  0.63060000  0.69620000  1.0
  H  H624  1  0.05070000  0.47210000  0.74090000  1.0
  H  H625  1  0.02730000  0.53290000  0.72270000  1.0
  H  H626  1  0.05550000  0.45550000  0.85470000  1.0
  H  H627  1  0.06570000  0.42490000  0.82190000  1.0
  H  H628  1  0.01160000  0.57720000  0.77480000  1.0
  H  H629  1  0.02260000  0.54420000  0.82760000  1.0
  H  H681  1  0.27650000  0.47070000  0.40130000  1.0
  H  H682  1  0.24840000  0.55640000  0.32280000  1.0
  H  H683  1  0.19210000  0.74890000  0.31710000  1.0
  H  H684  1  0.19550000  0.77430000  0.38450000  1.0
  H  H685  1  0.12250000  0.69970000  0.43070000  1.0
  H  H686  1  0.15530000  0.64970000  0.46390000  1.0
  H  H687  1  0.20490000  0.62290000  0.39750000  1.0
  H  H688  1  0.17040000  0.67140000  0.36520000  1.0
  H  H689  1  0.19550000  0.65070000  0.58250000  1.0
  H  H690  1  0.20080000  0.62040000  0.55220000  1.0
  H  H691  1  0.11140000  0.69620000  0.63060000  1.0
  H  H692  1  0.23630000  0.74090000  0.47210000  1.0
  H  H693  1  0.21710000  0.72270000  0.53290000  1.0
  H  H694  1  0.13430000  0.85470000  0.45550000  1.0
  H  H695  1  0.18750000  0.82190000  0.42490000  1.0
  H  H696  1  0.13640000  0.77480000  0.57720000  1.0
  H  H697  1  0.10560000  0.82760000  0.54420000  1.0
  H  H749  1  0.40130000  0.35150000  0.27650000  1.0
  H  H750  1  0.32280000  0.37240000  0.24840000  1.0
  H  H751  1  0.31710000  0.24190000  0.19210000  1.0
  H  H752  1  0.38450000  0.14570000  0.19550000  1.0
  H  H753  1  0.43070000  0.24710000  0.12250000  1.0
  H  H754  1  0.46390000  0.23110000  0.15530000  1.0
  H  H755  1  0.39750000  0.27470000  0.20490000  1.0
  H  H756  1  0.36520000  0.29300000  0.17040000  1.0
  H  H757  1  0.58250000  0.07130000  0.19550000  1.0
  H  H758  1  0.55220000  0.12660000  0.20080000  1.0
  H  H759  1  0.63060000  0.06180000  0.11140000  1.0
  H  H760  1  0.47210000  0.05070000  0.23630000  1.0
  H  H761  1  0.53290000  0.02730000  0.21710000  1.0
  H  H762  1  0.45550000  0.05550000  0.13430000  1.0
  H  H763  1  0.42490000  0.06570000  0.18750000  1.0
  H  H764  1  0.57720000  0.01160000  0.13640000  1.0
  H  H765  1  0.54420000  0.02260000  0.10560000  1.0
  H  H817  1  0.59870000  0.64850000  0.52930000  1.0
  H  H818  1  0.67720000  0.62760000  0.44360000  1.0
  H  H819  1  0.68290000  0.75810000  0.25110000  1.0
  H  H820  1  0.61550000  0.85430000  0.22570000  1.0
  H  H821  1  0.56930000  0.75290000  0.30030000  1.0
  H  H822  1  0.53610000  0.76890000  0.35030000  1.0
  H  H823  1  0.60250000  0.72530000  0.37710000  1.0
  H  H824  1  0.63480000  0.70700000  0.32860000  1.0
  H  H825  1  0.41750000  0.92870000  0.34930000  1.0
  H  H826  1  0.44780000  0.87340000  0.37960000  1.0
  H  H827  1  0.36940000  0.93820000  0.30380000  1.0
  H  H828  1  0.52790000  0.94930000  0.25910000  1.0
  H  H829  1  0.46710000  0.97270000  0.27730000  1.0
  H  H830  1  0.54450000  0.94450000  0.14530000  1.0
  H  H831  1  0.57510000  0.93430000  0.17810000  1.0
  H  H832  1  0.42280000  0.98840000  0.22520000  1.0
  H  H833  1  0.45580000  0.97740000  0.17240000  1.0
  H  H885  1  0.72350000  0.52930000  0.64850000  1.0
  H  H886  1  0.75160000  0.44360000  0.62760000  1.0
  H  H887  1  0.80790000  0.25110000  0.75810000  1.0
  H  H888  1  0.80450000  0.22570000  0.85430000  1.0
  H  H889  1  0.87750000  0.30030000  0.75290000  1.0
  H  H890  1  0.84470000  0.35030000  0.76890000  1.0
  H  H891  1  0.79510000  0.37710000  0.72530000  1.0
  H  H892  1  0.82960000  0.32860000  0.70700000  1.0
  H  H893  1  0.80450000  0.34930000  0.92870000  1.0
  H  H894  1  0.79920000  0.37960000  0.87340000  1.0
  H  H895  1  0.88860000  0.30380000  0.93820000  1.0
  H  H896  1  0.76370000  0.25910000  0.94930000  1.0
  H  H897  1  0.78290000  0.27730000  0.97270000  1.0
  H  H898  1  0.86570000  0.14530000  0.94450000  1.0
  H  H899  1  0.81250000  0.17810000  0.93430000  1.0
  H  H900  1  0.86360000  0.22520000  0.98840000  1.0
  H  H901  1  0.89440000  0.17240000  0.97740000  1.0
  H  H953  1  0.64850000  0.59870000  0.72350000  1.0
  H  H954  1  0.62760000  0.67720000  0.75160000  1.0
  H  H955  1  0.75810000  0.68290000  0.80790000  1.0
  H  H956  1  0.85430000  0.61550000  0.80450000  1.0
  H  H957  1  0.75290000  0.56930000  0.87750000  1.0
  H  H958  1  0.76890000  0.53610000  0.84470000  1.0
  H  H959  1  0.72530000  0.60250000  0.79510000  1.0
  H  H960  1  0.70700000  0.63480000  0.82960000  1.0
  H  H961  1  0.92870000  0.41750000  0.80450000  1.0
  H  H962  1  0.87340000  0.44780000  0.79920000  1.0
  H  H963  1  0.93820000  0.36940000  0.88860000  1.0
  H  H964  1  0.94930000  0.52790000  0.76370000  1.0
  H  H965  1  0.97270000  0.46710000  0.78290000  1.0
  H  H966  1  0.94450000  0.54450000  0.86570000  1.0
  H  H967  1  0.93430000  0.57510000  0.81250000  1.0
  H  H968  1  0.98840000  0.42280000  0.86360000  1.0
  H  H969  1  0.97740000  0.45580000  0.89440000  1.0
  H  H1021  1  0.52930000  0.72350000  0.59870000  1.0
  H  H1022  1  0.44360000  0.75160000  0.67720000  1.0
  H  H1023  1  0.25110000  0.80790000  0.68290000  1.0
  H  H1024  1  0.22570000  0.80450000  0.61550000  1.0
  H  H1025  1  0.30030000  0.87750000  0.56930000  1.0
  H  H1026  1  0.35030000  0.84470000  0.53610000  1.0
  H  H1027  1  0.37710000  0.79510000  0.60250000  1.0
  H  H1028  1  0.32860000  0.82960000  0.63480000  1.0
  H  H1029  1  0.34930000  0.80450000  0.41750000  1.0
  H  H1030  1  0.37960000  0.79920000  0.44780000  1.0
  H  H1031  1  0.30380000  0.88860000  0.36940000  1.0
  H  H1032  1  0.25910000  0.76370000  0.52790000  1.0
  H  H1033  1  0.27730000  0.78290000  0.46710000  1.0
  H  H1034  1  0.14530000  0.86570000  0.54450000  1.0
  H  H1035  1  0.17810000  0.81250000  0.57510000  1.0
  H  H1036  1  0.22520000  0.86360000  0.42280000  1.0
  H  H1037  1  0.17240000  0.89440000  0.45580000  1.0
  H  H1089  1  0.59870000  0.52930000  0.72350000  1.0
  H  H1090  1  0.67720000  0.44360000  0.75160000  1.0
  H  H1091  1  0.68290000  0.25110000  0.80790000  1.0
  H  H1092  1  0.61550000  0.22570000  0.80450000  1.0
  H  H1093  1  0.56930000  0.30030000  0.87750000  1.0
  H  H1094  1  0.53610000  0.35030000  0.84470000  1.0
  H  H1095  1  0.60250000  0.37710000  0.79510000  1.0
  H  H1096  1  0.63480000  0.32860000  0.82960000  1.0
  H  H1097  1  0.41750000  0.34930000  0.80450000  1.0
  H  H1098  1  0.44780000  0.37960000  0.79920000  1.0
  H  H1099  1  0.36940000  0.30380000  0.88860000  1.0
  H  H1100  1  0.52790000  0.25910000  0.76370000  1.0
  H  H1101  1  0.46710000  0.27730000  0.78290000  1.0
  H  H1102  1  0.54450000  0.14530000  0.86570000  1.0
  H  H1103  1  0.57510000  0.17810000  0.81250000  1.0
  H  H1104  1  0.42280000  0.22520000  0.86360000  1.0
  H  H1105  1  0.45580000  0.17240000  0.89440000  1.0
  H  H1157  1  0.72350000  0.64850000  0.59870000  1.0
  H  H1158  1  0.75160000  0.62760000  0.67720000  1.0
  H  H1159  1  0.80790000  0.75810000  0.68290000  1.0
  H  H1160  1  0.80450000  0.85430000  0.61550000  1.0
  H  H1161  1  0.87750000  0.75290000  0.56930000  1.0
  H  H1162  1  0.84470000  0.76890000  0.53610000  1.0
  H  H1163  1  0.79510000  0.72530000  0.60250000  1.0
  H  H1164  1  0.82960000  0.70700000  0.63480000  1.0
  H  H1165  1  0.80450000  0.92870000  0.41750000  1.0
  H  H1166  1  0.79920000  0.87340000  0.44780000  1.0
  H  H1167  1  0.88860000  0.93820000  0.36940000  1.0
  H  H1168  1  0.76370000  0.94930000  0.52790000  1.0
  H  H1169  1  0.78290000  0.97270000  0.46710000  1.0
  H  H1170  1  0.86570000  0.94450000  0.54450000  1.0
  H  H1171  1  0.81250000  0.93430000  0.57510000  1.0
  H  H1172  1  0.86360000  0.98840000  0.42280000  1.0
  H  H1173  1  0.89440000  0.97740000  0.45580000  1.0
  H  H1225  1  0.64850000  0.72350000  0.52930000  1.0
  H  H1226  1  0.62760000  0.75160000  0.44360000  1.0
  H  H1227  1  0.75810000  0.80790000  0.25110000  1.0
  H  H1228  1  0.85430000  0.80450000  0.22570000  1.0
  H  H1229  1  0.75290000  0.87750000  0.30030000  1.0
  H  H1230  1  0.76890000  0.84470000  0.35030000  1.0
  H  H1231  1  0.72530000  0.79510000  0.37710000  1.0
  H  H1232  1  0.70700000  0.82960000  0.32860000  1.0
  H  H1233  1  0.92870000  0.80450000  0.34930000  1.0
  H  H1234  1  0.87340000  0.79920000  0.37960000  1.0
  H  H1235  1  0.93820000  0.88860000  0.30380000  1.0
  H  H1236  1  0.94930000  0.76370000  0.25910000  1.0
  H  H1237  1  0.97270000  0.78290000  0.27730000  1.0
  H  H1238  1  0.94450000  0.86570000  0.14530000  1.0
  H  H1239  1  0.93430000  0.81250000  0.17810000  1.0
  H  H1240  1  0.98840000  0.86360000  0.22520000  1.0
  H  H1241  1  0.97740000  0.89440000  0.17240000  1.0
  H  H1293  1  0.52930000  0.59870000  0.64850000  1.0
  H  H1294  1  0.44360000  0.67720000  0.62760000  1.0
  H  H1295  1  0.25110000  0.68290000  0.75810000  1.0
  H  H1296  1  0.22570000  0.61550000  0.85430000  1.0
  H  H1297  1  0.30030000  0.56930000  0.75290000  1.0
  H  H1298  1  0.35030000  0.53610000  0.76890000  1.0
  H  H1299  1  0.37710000  0.60250000  0.72530000  1.0
  H  H1300  1  0.32860000  0.63480000  0.70700000  1.0
  H  H1301  1  0.34930000  0.41750000  0.92870000  1.0
  H  H1302  1  0.37960000  0.44780000  0.87340000  1.0
  H  H1303  1  0.30380000  0.36940000  0.93820000  1.0
  H  H1304  1  0.25910000  0.52790000  0.94930000  1.0
  H  H1305  1  0.27730000  0.46710000  0.97270000  1.0
  H  H1306  1  0.14530000  0.54450000  0.94450000  1.0
  H  H1307  1  0.17810000  0.57510000  0.93430000  1.0
  H  H1308  1  0.22520000  0.42280000  0.98840000  1.0
  H  H1309  1  0.17240000  0.45580000  0.97740000  1.0
  H  H1361  1  0.59870000  0.72350000  0.64850000  1.0
  H  H1362  1  0.67720000  0.75160000  0.62760000  1.0
  H  H1363  1  0.68290000  0.80790000  0.75810000  1.0
  H  H1364  1  0.61550000  0.80450000  0.85430000  1.0
  H  H1365  1  0.56930000  0.87750000  0.75290000  1.0
  H  H1366  1  0.53610000  0.84470000  0.76890000  1.0
  H  H1367  1  0.60250000  0.79510000  0.72530000  1.0
  H  H1368  1  0.63480000  0.82960000  0.70700000  1.0
  H  H1369  1  0.41750000  0.80450000  0.92870000  1.0
  H  H1370  1  0.44780000  0.79920000  0.87340000  1.0
  H  H1371  1  0.36940000  0.88860000  0.93820000  1.0
  H  H1372  1  0.52790000  0.76370000  0.94930000  1.0
  H  H1373  1  0.46710000  0.78290000  0.97270000  1.0
  H  H1374  1  0.54450000  0.86570000  0.94450000  1.0
  H  H1375  1  0.57510000  0.81250000  0.93430000  1.0
  H  H1376  1  0.42280000  0.86360000  0.98840000  1.0
  H  H1377  1  0.45580000  0.89440000  0.97740000  1.0
  H  H1429  1  0.72350000  0.59870000  0.52930000  1.0
  H  H1430  1  0.75160000  0.67720000  0.44360000  1.0
  H  H1431  1  0.80790000  0.68290000  0.25110000  1.0
  H  H1432  1  0.80450000  0.61550000  0.22570000  1.0
  H  H1433  1  0.87750000  0.56930000  0.30030000  1.0
  H  H1434  1  0.84470000  0.53610000  0.35030000  1.0
  H  H1435  1  0.79510000  0.60250000  0.37710000  1.0
  H  H1436  1  0.82960000  0.63480000  0.32860000  1.0
  H  H1437  1  0.80450000  0.41750000  0.34930000  1.0
  H  H1438  1  0.79920000  0.44780000  0.37960000  1.0
  H  H1439  1  0.88860000  0.36940000  0.30380000  1.0
  H  H1440  1  0.76370000  0.52790000  0.25910000  1.0
  H  H1441  1  0.78290000  0.46710000  0.27730000  1.0
  H  H1442  1  0.86570000  0.54450000  0.14530000  1.0
  H  H1443  1  0.81250000  0.57510000  0.17810000  1.0
  H  H1444  1  0.86360000  0.42280000  0.22520000  1.0
  H  H1445  1  0.89440000  0.45580000  0.17240000  1.0
  H  H1497  1  0.64850000  0.52930000  0.59870000  1.0
  H  H1498  1  0.62760000  0.44360000  0.67720000  1.0
  H  H1499  1  0.75810000  0.25110000  0.68290000  1.0
  H  H1500  1  0.85430000  0.22570000  0.61550000  1.0
  H  H1501  1  0.75290000  0.30030000  0.56930000  1.0
  H  H1502  1  0.76890000  0.35030000  0.53610000  1.0
  H  H1503  1  0.72530000  0.37710000  0.60250000  1.0
  H  H1504  1  0.70700000  0.32860000  0.63480000  1.0
  H  H1505  1  0.92870000  0.34930000  0.41750000  1.0
  H  H1506  1  0.87340000  0.37960000  0.44780000  1.0
  H  H1507  1  0.93820000  0.30380000  0.36940000  1.0
  H  H1508  1  0.94930000  0.25910000  0.52790000  1.0
  H  H1509  1  0.97270000  0.27730000  0.46710000  1.0
  H  H1510  1  0.94450000  0.14530000  0.54450000  1.0
  H  H1511  1  0.93430000  0.17810000  0.57510000  1.0
  H  H1512  1  0.98840000  0.22520000  0.42280000  1.0
  H  H1513  1  0.97740000  0.17240000  0.45580000  1.0
  H  H1565  1  0.52930000  0.64850000  0.72350000  1.0
  H  H1566  1  0.44360000  0.62760000  0.75160000  1.0
  H  H1567  1  0.25110000  0.75810000  0.80790000  1.0
  H  H1568  1  0.22570000  0.85430000  0.80450000  1.0
  H  H1569  1  0.30030000  0.75290000  0.87750000  1.0
  H  H1570  1  0.35030000  0.76890000  0.84470000  1.0
  H  H1571  1  0.37710000  0.72530000  0.79510000  1.0
  H  H1572  1  0.32860000  0.70700000  0.82960000  1.0
  H  H1573  1  0.34930000  0.92870000  0.80450000  1.0
  H  H1574  1  0.37960000  0.87340000  0.79920000  1.0
  H  H1575  1  0.30380000  0.93820000  0.88860000  1.0
  H  H1576  1  0.25910000  0.94930000  0.76370000  1.0
  H  H1577  1  0.27730000  0.97270000  0.78290000  1.0
  H  H1578  1  0.14530000  0.94450000  0.86570000  1.0
  H  H1579  1  0.17810000  0.93430000  0.81250000  1.0
  H  H1580  1  0.22520000  0.98840000  0.86360000  1.0
  H  H1581  1  0.17240000  0.97740000  0.89440000  1.0
  H  H1633  1  0.72350000  0.64850000  0.52930000  1.0
  H  H1634  1  0.75160000  0.62760000  0.44360000  1.0
  H  H1635  1  0.80790000  0.75810000  0.25110000  1.0
  H  H1636  1  0.80450000  0.85430000  0.22570000  1.0
  H  H1637  1  0.87750000  0.75290000  0.30030000  1.0
  H  H1638  1  0.84470000  0.76890000  0.35030000  1.0
  H  H1639  1  0.79510000  0.72530000  0.37710000  1.0
  H  H1640  1  0.82960000  0.70700000  0.32860000  1.0
  H  H1641  1  0.80450000  0.92870000  0.34930000  1.0
  H  H1642  1  0.79920000  0.87340000  0.37960000  1.0
  H  H1643  1  0.88860000  0.93820000  0.30380000  1.0
  H  H1644  1  0.76370000  0.94930000  0.25910000  1.0
  H  H1645  1  0.78290000  0.97270000  0.27730000  1.0
  H  H1646  1  0.86570000  0.94450000  0.14530000  1.0
  H  H1647  1  0.81250000  0.93430000  0.17810000  1.0
  H  H1648  1  0.86360000  0.98840000  0.22520000  1.0
  H  H1649  1  0.89440000  0.97740000  0.17240000  1.0
  H  H1701  1  0.59870000  0.52930000  0.64850000  1.0
  H  H1702  1  0.67720000  0.44360000  0.62760000  1.0
  H  H1703  1  0.68290000  0.25110000  0.75810000  1.0
  H  H1704  1  0.61550000  0.22570000  0.85430000  1.0
  H  H1705  1  0.56930000  0.30030000  0.75290000  1.0
  H  H1706  1  0.53610000  0.35030000  0.76890000  1.0
  H  H1707  1  0.60250000  0.37710000  0.72530000  1.0
  H  H1708  1  0.63480000  0.32860000  0.70700000  1.0
  H  H1709  1  0.41750000  0.34930000  0.92870000  1.0
  H  H1710  1  0.44780000  0.37960000  0.87340000  1.0
  H  H1711  1  0.36940000  0.30380000  0.93820000  1.0
  H  H1712  1  0.52790000  0.25910000  0.94930000  1.0
  H  H1713  1  0.46710000  0.27730000  0.97270000  1.0
  H  H1714  1  0.54450000  0.14530000  0.94450000  1.0
  H  H1715  1  0.57510000  0.17810000  0.93430000  1.0
  H  H1716  1  0.42280000  0.22520000  0.98840000  1.0
  H  H1717  1  0.45580000  0.17240000  0.97740000  1.0
  H  H1769  1  0.52930000  0.59870000  0.72350000  1.0
  H  H1770  1  0.44360000  0.67720000  0.75160000  1.0
  H  H1771  1  0.25110000  0.68290000  0.80790000  1.0
  H  H1772  1  0.22570000  0.61550000  0.80450000  1.0
  H  H1773  1  0.30030000  0.56930000  0.87750000  1.0
  H  H1774  1  0.35030000  0.53610000  0.84470000  1.0
  H  H1775  1  0.37710000  0.60250000  0.79510000  1.0
  H  H1776  1  0.32860000  0.63480000  0.82960000  1.0
  H  H1777  1  0.34930000  0.41750000  0.80450000  1.0
  H  H1778  1  0.37960000  0.44780000  0.79920000  1.0
  H  H1779  1  0.30380000  0.36940000  0.88860000  1.0
  H  H1780  1  0.25910000  0.52790000  0.76370000  1.0
  H  H1781  1  0.27730000  0.46710000  0.78290000  1.0
  H  H1782  1  0.14530000  0.54450000  0.86570000  1.0
  H  H1783  1  0.17810000  0.57510000  0.81250000  1.0
  H  H1784  1  0.22520000  0.42280000  0.86360000  1.0
  H  H1785  1  0.17240000  0.45580000  0.89440000  1.0
  H  H1837  1  0.64850000  0.72350000  0.59870000  1.0
  H  H1838  1  0.62760000  0.75160000  0.67720000  1.0
  H  H1839  1  0.75810000  0.80790000  0.68290000  1.0
  H  H1840  1  0.85430000  0.80450000  0.61550000  1.0
  H  H1841  1  0.75290000  0.87750000  0.56930000  1.0
  H  H1842  1  0.76890000  0.84470000  0.53610000  1.0
  H  H1843  1  0.72530000  0.79510000  0.60250000  1.0
  H  H1844  1  0.70700000  0.82960000  0.63480000  1.0
  H  H1845  1  0.92870000  0.80450000  0.41750000  1.0
  H  H1846  1  0.87340000  0.79920000  0.44780000  1.0
  H  H1847  1  0.93820000  0.88860000  0.36940000  1.0
  H  H1848  1  0.94930000  0.76370000  0.52790000  1.0
  H  H1849  1  0.97270000  0.78290000  0.46710000  1.0
  H  H1850  1  0.94450000  0.86570000  0.54450000  1.0
  H  H1851  1  0.93430000  0.81250000  0.57510000  1.0
  H  H1852  1  0.98840000  0.86360000  0.42280000  1.0
  H  H1853  1  0.97740000  0.89440000  0.45580000  1.0
  H  H1905  1  0.64850000  0.52930000  0.72350000  1.0
  H  H1906  1  0.62760000  0.44360000  0.75160000  1.0
  H  H1907  1  0.75810000  0.25110000  0.80790000  1.0
  H  H1908  1  0.85430000  0.22570000  0.80450000  1.0
  H  H1909  1  0.75290000  0.30030000  0.87750000  1.0
  H  H1910  1  0.76890000  0.35030000  0.84470000  1.0
  H  H1911  1  0.72530000  0.37710000  0.79510000  1.0
  H  H1912  1  0.70700000  0.32860000  0.82960000  1.0
  H  H1913  1  0.92870000  0.34930000  0.80450000  1.0
  H  H1914  1  0.87340000  0.37960000  0.79920000  1.0
  H  H1915  1  0.93820000  0.30380000  0.88860000  1.0
  H  H1916  1  0.94930000  0.25910000  0.76370000  1.0
  H  H1917  1  0.97270000  0.27730000  0.78290000  1.0
  H  H1918  1  0.94450000  0.14530000  0.86570000  1.0
  H  H1919  1  0.93430000  0.17810000  0.81250000  1.0
  H  H1920  1  0.98840000  0.22520000  0.86360000  1.0
  H  H1921  1  0.97740000  0.17240000  0.89440000  1.0
  H  H1973  1  0.52930000  0.64850000  0.59870000  1.0
  H  H1974  1  0.44360000  0.62760000  0.67720000  1.0
  H  H1975  1  0.25110000  0.75810000  0.68290000  1.0
  H  H1976  1  0.22570000  0.85430000  0.61550000  1.0
  H  H1977  1  0.30030000  0.75290000  0.56930000  1.0
  H  H1978  1  0.35030000  0.76890000  0.53610000  1.0
  H  H1979  1  0.37710000  0.72530000  0.60250000  1.0
  H  H1980  1  0.32860000  0.70700000  0.63480000  1.0
  H  H1981  1  0.34930000  0.92870000  0.41750000  1.0
  H  H1982  1  0.37960000  0.87340000  0.44780000  1.0
  H  H1983  1  0.30380000  0.93820000  0.36940000  1.0
  H  H1984  1  0.25910000  0.94930000  0.52790000  1.0
  H  H1985  1  0.27730000  0.97270000  0.46710000  1.0
  H  H1986  1  0.14530000  0.94450000  0.54450000  1.0
  H  H1987  1  0.17810000  0.93430000  0.57510000  1.0
  H  H1988  1  0.22520000  0.98840000  0.42280000  1.0
  H  H1989  1  0.17240000  0.97740000  0.45580000  1.0
  H  H2041  1  0.59870000  0.72350000  0.52930000  1.0
  H  H2042  1  0.67720000  0.75160000  0.44360000  1.0
  H  H2043  1  0.68290000  0.80790000  0.25110000  1.0
  H  H2044  1  0.61550000  0.80450000  0.22570000  1.0
  H  H2045  1  0.56930000  0.87750000  0.30030000  1.0
  H  H2046  1  0.53610000  0.84470000  0.35030000  1.0
  H  H2047  1  0.60250000  0.79510000  0.37710000  1.0
  H  H2048  1  0.63480000  0.82960000  0.32860000  1.0
  H  H2049  1  0.41750000  0.80450000  0.34930000  1.0
  H  H2050  1  0.44780000  0.79920000  0.37960000  1.0
  H  H2051  1  0.36940000  0.88860000  0.30380000  1.0
  H  H2052  1  0.52790000  0.76370000  0.25910000  1.0
  H  H2053  1  0.46710000  0.78290000  0.27730000  1.0
  H  H2054  1  0.54450000  0.86570000  0.14530000  1.0
  H  H2055  1  0.57510000  0.81250000  0.17810000  1.0
  H  H2056  1  0.42280000  0.86360000  0.22520000  1.0
  H  H2057  1  0.45580000  0.89440000  0.17240000  1.0
  H  H2109  1  0.72350000  0.59870000  0.64850000  1.0
  H  H2110  1  0.75160000  0.67720000  0.62760000  1.0
  H  H2111  1  0.80790000  0.68290000  0.75810000  1.0
  H  H2112  1  0.80450000  0.61550000  0.85430000  1.0
  H  H2113  1  0.87750000  0.56930000  0.75290000  1.0
  H  H2114  1  0.84470000  0.53610000  0.76890000  1.0
  H  H2115  1  0.79510000  0.60250000  0.72530000  1.0
  H  H2116  1  0.82960000  0.63480000  0.70700000  1.0
  H  H2117  1  0.80450000  0.41750000  0.92870000  1.0
  H  H2118  1  0.79920000  0.44780000  0.87340000  1.0
  H  H2119  1  0.88860000  0.36940000  0.93820000  1.0
  H  H2120  1  0.76370000  0.52790000  0.94930000  1.0
  H  H2121  1  0.78290000  0.46710000  0.97270000  1.0
  H  H2122  1  0.86570000  0.54450000  0.94450000  1.0
  H  H2123  1  0.81250000  0.57510000  0.93430000  1.0
  H  H2124  1  0.86360000  0.42280000  0.98840000  1.0
  H  H2125  1  0.89440000  0.45580000  0.97740000  1.0
  H  H2177  1  0.52930000  0.72350000  0.64850000  1.0
  H  H2178  1  0.44360000  0.75160000  0.62760000  1.0
  H  H2179  1  0.25110000  0.80790000  0.75810000  1.0
  H  H2180  1  0.22570000  0.80450000  0.85430000  1.0
  H  H2181  1  0.30030000  0.87750000  0.75290000  1.0
  H  H2182  1  0.35030000  0.84470000  0.76890000  1.0
  H  H2183  1  0.37710000  0.79510000  0.72530000  1.0
  H  H2184  1  0.32860000  0.82960000  0.70700000  1.0
  H  H2185  1  0.34930000  0.80450000  0.92870000  1.0
  H  H2186  1  0.37960000  0.79920000  0.87340000  1.0
  H  H2187  1  0.30380000  0.88860000  0.93820000  1.0
  H  H2188  1  0.25910000  0.76370000  0.94930000  1.0
  H  H2189  1  0.27730000  0.78290000  0.97270000  1.0
  H  H2190  1  0.14530000  0.86570000  0.94450000  1.0
  H  H2191  1  0.17810000  0.81250000  0.93430000  1.0
  H  H2192  1  0.22520000  0.86360000  0.98840000  1.0
  H  H2193  1  0.17240000  0.89440000  0.97740000  1.0
  H  H2245  1  0.64850000  0.59870000  0.52930000  1.0
  H  H2246  1  0.62760000  0.67720000  0.44360000  1.0
  H  H2247  1  0.75810000  0.68290000  0.25110000  1.0
  H  H2248  1  0.85430000  0.61550000  0.22570000  1.0
  H  H2249  1  0.75290000  0.56930000  0.30030000  1.0
  H  H2250  1  0.76890000  0.53610000  0.35030000  1.0
  H  H2251  1  0.72530000  0.60250000  0.37710000  1.0
  H  H2252  1  0.70700000  0.63480000  0.32860000  1.0
  H  H2253  1  0.92870000  0.41750000  0.34930000  1.0
  H  H2254  1  0.87340000  0.44780000  0.37960000  1.0
  H  H2255  1  0.93820000  0.36940000  0.30380000  1.0
  H  H2256  1  0.94930000  0.52790000  0.25910000  1.0
  H  H2257  1  0.97270000  0.46710000  0.27730000  1.0
  H  H2258  1  0.94450000  0.54450000  0.14530000  1.0
  H  H2259  1  0.93430000  0.57510000  0.17810000  1.0
  H  H2260  1  0.98840000  0.42280000  0.22520000  1.0
  H  H2261  1  0.97740000  0.45580000  0.17240000  1.0
  H  H2313  1  0.72350000  0.52930000  0.59870000  1.0
  H  H2314  1  0.75160000  0.44360000  0.67720000  1.0
  H  H2315  1  0.80790000  0.25110000  0.68290000  1.0
  H  H2316  1  0.80450000  0.22570000  0.61550000  1.0
  H  H2317  1  0.87750000  0.30030000  0.56930000  1.0
  H  H2318  1  0.84470000  0.35030000  0.53610000  1.0
  H  H2319  1  0.79510000  0.37710000  0.60250000  1.0
  H  H2320  1  0.82960000  0.32860000  0.63480000  1.0
  H  H2321  1  0.80450000  0.34930000  0.41750000  1.0
  H  H2322  1  0.79920000  0.37960000  0.44780000  1.0
  H  H2323  1  0.88860000  0.30380000  0.36940000  1.0
  H  H2324  1  0.76370000  0.25910000  0.52790000  1.0
  H  H2325  1  0.78290000  0.27730000  0.46710000  1.0
  H  H2326  1  0.86570000  0.14530000  0.54450000  1.0
  H  H2327  1  0.81250000  0.17810000  0.57510000  1.0
  H  H2328  1  0.86360000  0.22520000  0.42280000  1.0
  H  H2329  1  0.89440000  0.17240000  0.45580000  1.0
  H  H2381  1  0.59870000  0.64850000  0.72350000  1.0
  H  H2382  1  0.67720000  0.62760000  0.75160000  1.0
  H  H2383  1  0.68290000  0.75810000  0.80790000  1.0
  H  H2384  1  0.61550000  0.85430000  0.80450000  1.0
  H  H2385  1  0.56930000  0.75290000  0.87750000  1.0
  H  H2386  1  0.53610000  0.76890000  0.84470000  1.0
  H  H2387  1  0.60250000  0.72530000  0.79510000  1.0
  H  H2388  1  0.63480000  0.70700000  0.82960000  1.0
  H  H2389  1  0.41750000  0.92870000  0.80450000  1.0
  H  H2390  1  0.44780000  0.87340000  0.79920000  1.0
  H  H2391  1  0.36940000  0.93820000  0.88860000  1.0
  H  H2392  1  0.52790000  0.94930000  0.76370000  1.0
  H  H2393  1  0.46710000  0.97270000  0.78290000  1.0
  H  H2394  1  0.54450000  0.94450000  0.86570000  1.0
  H  H2395  1  0.57510000  0.93430000  0.81250000  1.0
  H  H2396  1  0.42280000  0.98840000  0.86360000  1.0
  H  H2397  1  0.45580000  0.97740000  0.89440000  1.0
  H  H2449  1  0.40130000  0.35150000  0.47070000  1.0
  H  H2450  1  0.32280000  0.37240000  0.55640000  1.0
  H  H2451  1  0.31710000  0.24190000  0.74890000  1.0
  H  H2452  1  0.38450000  0.14570000  0.77430000  1.0
  H  H2453  1  0.43070000  0.24710000  0.69970000  1.0
  H  H2454  1  0.46390000  0.23110000  0.64970000  1.0
  H  H2455  1  0.39750000  0.27470000  0.62290000  1.0
  H  H2456  1  0.36520000  0.29300000  0.67140000  1.0
  H  H2457  1  0.58250000  0.07130000  0.65070000  1.0
  H  H2458  1  0.55220000  0.12660000  0.62040000  1.0
  H  H2459  1  0.63060000  0.06180000  0.69620000  1.0
  H  H2460  1  0.47210000  0.05070000  0.74090000  1.0
  H  H2461  1  0.53290000  0.02730000  0.72270000  1.0
  H  H2462  1  0.45550000  0.05550000  0.85470000  1.0
  H  H2463  1  0.42490000  0.06570000  0.82190000  1.0
  H  H2464  1  0.57720000  0.01160000  0.77480000  1.0
  H  H2465  1  0.54420000  0.02260000  0.82760000  1.0
  H  H2517  1  0.27650000  0.47070000  0.35150000  1.0
  H  H2518  1  0.24840000  0.55640000  0.37240000  1.0
  H  H2519  1  0.19210000  0.74890000  0.24190000  1.0
  H  H2520  1  0.19550000  0.77430000  0.14570000  1.0
  H  H2521  1  0.12250000  0.69970000  0.24710000  1.0
  H  H2522  1  0.15530000  0.64970000  0.23110000  1.0
  H  H2523  1  0.20490000  0.62290000  0.27470000  1.0
  H  H2524  1  0.17040000  0.67140000  0.29300000  1.0
  H  H2525  1  0.19550000  0.65070000  0.07130000  1.0
  H  H2526  1  0.20080000  0.62040000  0.12660000  1.0
  H  H2527  1  0.11140000  0.69620000  0.06180000  1.0
  H  H2528  1  0.23630000  0.74090000  0.05070000  1.0
  H  H2529  1  0.21710000  0.72270000  0.02730000  1.0
  H  H2530  1  0.13430000  0.85470000  0.05550000  1.0
  H  H2531  1  0.18750000  0.82190000  0.06570000  1.0
  H  H2532  1  0.13640000  0.77480000  0.01160000  1.0
  H  H2533  1  0.10560000  0.82760000  0.02260000  1.0
  H  H2585  1  0.35150000  0.40130000  0.27650000  1.0
  H  H2586  1  0.37240000  0.32280000  0.24840000  1.0
  H  H2587  1  0.24190000  0.31710000  0.19210000  1.0
  H  H2588  1  0.14570000  0.38450000  0.19550000  1.0
  H  H2589  1  0.24710000  0.43070000  0.12250000  1.0
  H  H2590  1  0.23110000  0.46390000  0.15530000  1.0
  H  H2591  1  0.27470000  0.39750000  0.20490000  1.0
  H  H2592  1  0.29300000  0.36520000  0.17040000  1.0
  H  H2593  1  0.07130000  0.58250000  0.19550000  1.0
  H  H2594  1  0.12660000  0.55220000  0.20080000  1.0
  H  H2595  1  0.06180000  0.63060000  0.11140000  1.0
  H  H2596  1  0.05070000  0.47210000  0.23630000  1.0
  H  H2597  1  0.02730000  0.53290000  0.21710000  1.0
  H  H2598  1  0.05550000  0.45550000  0.13430000  1.0
  H  H2599  1  0.06570000  0.42490000  0.18750000  1.0
  H  H2600  1  0.01160000  0.57720000  0.13640000  1.0
  H  H2601  1  0.02260000  0.54420000  0.10560000  1.0
  H  H2653  1  0.47070000  0.27650000  0.40130000  1.0
  H  H2654  1  0.55640000  0.24840000  0.32280000  1.0
  H  H2655  1  0.74890000  0.19210000  0.31710000  1.0
  H  H2656  1  0.77430000  0.19550000  0.38450000  1.0
  H  H2657  1  0.69970000  0.12250000  0.43070000  1.0
  H  H2658  1  0.64970000  0.15530000  0.46390000  1.0
  H  H2659  1  0.62290000  0.20490000  0.39750000  1.0
  H  H2660  1  0.67140000  0.17040000  0.36520000  1.0
  H  H2661  1  0.65070000  0.19550000  0.58250000  1.0
  H  H2662  1  0.62040000  0.20080000  0.55220000  1.0
  H  H2663  1  0.69620000  0.11140000  0.63060000  1.0
  H  H2664  1  0.74090000  0.23630000  0.47210000  1.0
  H  H2665  1  0.72270000  0.21710000  0.53290000  1.0
  H  H2666  1  0.85470000  0.13430000  0.45550000  1.0
  H  H2667  1  0.82190000  0.18750000  0.42490000  1.0
  H  H2668  1  0.77480000  0.13640000  0.57720000  1.0
  H  H2669  1  0.82760000  0.10560000  0.54420000  1.0
  H  H2721  1  0.40130000  0.47070000  0.27650000  1.0
  H  H2722  1  0.32280000  0.55640000  0.24840000  1.0
  H  H2723  1  0.31710000  0.74890000  0.19210000  1.0
  H  H2724  1  0.38450000  0.77430000  0.19550000  1.0
  H  H2725  1  0.43070000  0.69970000  0.12250000  1.0
  H  H2726  1  0.46390000  0.64970000  0.15530000  1.0
  H  H2727  1  0.39750000  0.62290000  0.20490000  1.0
  H  H2728  1  0.36520000  0.67140000  0.17040000  1.0
  H  H2729  1  0.58250000  0.65070000  0.19550000  1.0
  H  H2730  1  0.55220000  0.62040000  0.20080000  1.0
  H  H2731  1  0.63060000  0.69620000  0.11140000  1.0
  H  H2732  1  0.47210000  0.74090000  0.23630000  1.0
  H  H2733  1  0.53290000  0.72270000  0.21710000  1.0
  H  H2734  1  0.45550000  0.85470000  0.13430000  1.0
  H  H2735  1  0.42490000  0.82190000  0.18750000  1.0
  H  H2736  1  0.57720000  0.77480000  0.13640000  1.0
  H  H2737  1  0.54420000  0.82760000  0.10560000  1.0
  H  H2789  1  0.27650000  0.35150000  0.40130000  1.0
  H  H2790  1  0.24840000  0.37240000  0.32280000  1.0
  H  H2791  1  0.19210000  0.24190000  0.31710000  1.0
  H  H2792  1  0.19550000  0.14570000  0.38450000  1.0
  H  H2793  1  0.12250000  0.24710000  0.43070000  1.0
  H  H2794  1  0.15530000  0.23110000  0.46390000  1.0
  H  H2795  1  0.20490000  0.27470000  0.39750000  1.0
  H  H2796  1  0.17040000  0.29300000  0.36520000  1.0
  H  H2797  1  0.19550000  0.07130000  0.58250000  1.0
  H  H2798  1  0.20080000  0.12660000  0.55220000  1.0
  H  H2799  1  0.11140000  0.06180000  0.63060000  1.0
  H  H2800  1  0.23630000  0.05070000  0.47210000  1.0
  H  H2801  1  0.21710000  0.02730000  0.53290000  1.0
  H  H2802  1  0.13430000  0.05550000  0.45550000  1.0
  H  H2803  1  0.18750000  0.06570000  0.42490000  1.0
  H  H2804  1  0.13640000  0.01160000  0.57720000  1.0
  H  H2805  1  0.10560000  0.02260000  0.54420000  1.0
  H  H2857  1  0.35150000  0.27650000  0.47070000  1.0
  H  H2858  1  0.37240000  0.24840000  0.55640000  1.0
  H  H2859  1  0.24190000  0.19210000  0.74890000  1.0
  H  H2860  1  0.14570000  0.19550000  0.77430000  1.0
  H  H2861  1  0.24710000  0.12250000  0.69970000  1.0
  H  H2862  1  0.23110000  0.15530000  0.64970000  1.0
  H  H2863  1  0.27470000  0.20490000  0.62290000  1.0
  H  H2864  1  0.29300000  0.17040000  0.67140000  1.0
  H  H2865  1  0.07130000  0.19550000  0.65070000  1.0
  H  H2866  1  0.12660000  0.20080000  0.62040000  1.0
  H  H2867  1  0.06180000  0.11140000  0.69620000  1.0
  H  H2868  1  0.05070000  0.23630000  0.74090000  1.0
  H  H2869  1  0.02730000  0.21710000  0.72270000  1.0
  H  H2870  1  0.05550000  0.13430000  0.85470000  1.0
  H  H2871  1  0.06570000  0.18750000  0.82190000  1.0
  H  H2872  1  0.01160000  0.13640000  0.77480000  1.0
  H  H2873  1  0.02260000  0.10560000  0.82760000  1.0
  H  H2925  1  0.47070000  0.40130000  0.35150000  1.0
  H  H2926  1  0.55640000  0.32280000  0.37240000  1.0
  H  H2927  1  0.74890000  0.31710000  0.24190000  1.0
  H  H2928  1  0.77430000  0.38450000  0.14570000  1.0
  H  H2929  1  0.69970000  0.43070000  0.24710000  1.0
  H  H2930  1  0.64970000  0.46390000  0.23110000  1.0
  H  H2931  1  0.62290000  0.39750000  0.27470000  1.0
  H  H2932  1  0.67140000  0.36520000  0.29300000  1.0
  H  H2933  1  0.65070000  0.58250000  0.07130000  1.0
  H  H2934  1  0.62040000  0.55220000  0.12660000  1.0
  H  H2935  1  0.69620000  0.63060000  0.06180000  1.0
  H  H2936  1  0.74090000  0.47210000  0.05070000  1.0
  H  H2937  1  0.72270000  0.53290000  0.02730000  1.0
  H  H2938  1  0.85470000  0.45550000  0.05550000  1.0
  H  H2939  1  0.82190000  0.42490000  0.06570000  1.0
  H  H2940  1  0.77480000  0.57720000  0.01160000  1.0
  H  H2941  1  0.82760000  0.54420000  0.02260000  1.0
  H  H2993  1  0.40130000  0.27650000  0.35150000  1.0
  H  H2994  1  0.32280000  0.24840000  0.37240000  1.0
  H  H2995  1  0.31710000  0.19210000  0.24190000  1.0
  H  H2996  1  0.38450000  0.19550000  0.14570000  1.0
  H  H2997  1  0.43070000  0.12250000  0.24710000  1.0
  H  H2998  1  0.46390000  0.15530000  0.23110000  1.0
  H  H2999  1  0.39750000  0.20490000  0.27470000  1.0
  H  H3000  1  0.36520000  0.17040000  0.29300000  1.0
  H  H3001  1  0.58250000  0.19550000  0.07130000  1.0
  H  H3002  1  0.55220000  0.20080000  0.12660000  1.0
  H  H3003  1  0.63060000  0.11140000  0.06180000  1.0
  H  H3004  1  0.47210000  0.23630000  0.05070000  1.0
  H  H3005  1  0.53290000  0.21710000  0.02730000  1.0
  H  H3006  1  0.45550000  0.13430000  0.05550000  1.0
  H  H3007  1  0.42490000  0.18750000  0.06570000  1.0
  H  H3008  1  0.57720000  0.13640000  0.01160000  1.0
  H  H3009  1  0.54420000  0.10560000  0.02260000  1.0
  H  H3061  1  0.27650000  0.40130000  0.47070000  1.0
  H  H3062  1  0.24840000  0.32280000  0.55640000  1.0
  H  H3063  1  0.19210000  0.31710000  0.74890000  1.0
  H  H3064  1  0.19550000  0.38450000  0.77430000  1.0
  H  H3065  1  0.12250000  0.43070000  0.69970000  1.0
  H  H3066  1  0.15530000  0.46390000  0.64970000  1.0
  H  H3067  1  0.20490000  0.39750000  0.62290000  1.0
  H  H3068  1  0.17040000  0.36520000  0.67140000  1.0
  H  H3069  1  0.19550000  0.58250000  0.65070000  1.0
  H  H3070  1  0.20080000  0.55220000  0.62040000  1.0
  H  H3071  1  0.11140000  0.63060000  0.69620000  1.0
  H  H3072  1  0.23630000  0.47210000  0.74090000  1.0
  H  H3073  1  0.21710000  0.53290000  0.72270000  1.0
  H  H3074  1  0.13430000  0.45550000  0.85470000  1.0
  H  H3075  1  0.18750000  0.42490000  0.82190000  1.0
  H  H3076  1  0.13640000  0.57720000  0.77480000  1.0
  H  H3077  1  0.10560000  0.54420000  0.82760000  1.0
  H  H3129  1  0.35150000  0.47070000  0.40130000  1.0
  H  H3130  1  0.37240000  0.55640000  0.32280000  1.0
  H  H3131  1  0.24190000  0.74890000  0.31710000  1.0
  H  H3132  1  0.14570000  0.77430000  0.38450000  1.0
  H  H3133  1  0.24710000  0.69970000  0.43070000  1.0
  H  H3134  1  0.23110000  0.64970000  0.46390000  1.0
  H  H3135  1  0.27470000  0.62290000  0.39750000  1.0
  H  H3136  1  0.29300000  0.67140000  0.36520000  1.0
  H  H3137  1  0.07130000  0.65070000  0.58250000  1.0
  H  H3138  1  0.12660000  0.62040000  0.55220000  1.0
  H  H3139  1  0.06180000  0.69620000  0.63060000  1.0
  H  H3140  1  0.05070000  0.74090000  0.47210000  1.0
  H  H3141  1  0.02730000  0.72270000  0.53290000  1.0
  H  H3142  1  0.05550000  0.85470000  0.45550000  1.0
  H  H3143  1  0.06570000  0.82190000  0.42490000  1.0
  H  H3144  1  0.01160000  0.77480000  0.57720000  1.0
  H  H3145  1  0.02260000  0.82760000  0.54420000  1.0
  H  H3197  1  0.47070000  0.35150000  0.27650000  1.0
  H  H3198  1  0.55640000  0.37240000  0.24840000  1.0
  H  H3199  1  0.74890000  0.24190000  0.19210000  1.0
  H  H3200  1  0.77430000  0.14570000  0.19550000  1.0
  H  H3201  1  0.69970000  0.24710000  0.12250000  1.0
  H  H3202  1  0.64970000  0.23110000  0.15530000  1.0
  H  H3203  1  0.62290000  0.27470000  0.20490000  1.0
  H  H3204  1  0.67140000  0.29300000  0.17040000  1.0
  H  H3205  1  0.65070000  0.07130000  0.19550000  1.0
  H  H3206  1  0.62040000  0.12660000  0.20080000  1.0
  H  H3207  1  0.69620000  0.06180000  0.11140000  1.0
  H  H3208  1  0.74090000  0.05070000  0.23630000  1.0
  H  H3209  1  0.72270000  0.02730000  0.21710000  1.0
  H  H3210  1  0.85470000  0.05550000  0.13430000  1.0
  H  H3211  1  0.82190000  0.06570000  0.18750000  1.0
  H  H3212  1  0.77480000  0.01160000  0.13640000  1.0
  H  H3213  1  0.82760000  0.02260000  0.10560000  1.0
  N  N1  1  0.16682000  0.04536000  0.78548000  1.0
  N  N5  1  0.50234000  0.78548000  0.04536000  1.0
  N  N9  1  0.78548000  0.50234000  0.16682000  1.0
  N  N13  1  0.04536000  0.16682000  0.50234000  1.0
  N  N17  1  0.04536000  0.78548000  0.16682000  1.0
  N  N21  1  0.78548000  0.04536000  0.50234000  1.0
  N  N25  1  0.50234000  0.16682000  0.78548000  1.0
  N  N29  1  0.16682000  0.50234000  0.04536000  1.0
  N  N33  1  0.78548000  0.16682000  0.04536000  1.0
  N  N37  1  0.04536000  0.50234000  0.78548000  1.0
  N  N41  1  0.16682000  0.78548000  0.50234000  1.0
  N  N45  1  0.50234000  0.04536000  0.16682000  1.0
  N  N49  1  0.49766000  0.95464000  0.21452000  1.0
  N  N53  1  0.83318000  0.21452000  0.95464000  1.0
  N  N57  1  0.95464000  0.49766000  0.83318000  1.0
  N  N61  1  0.21452000  0.83318000  0.49766000  1.0
  N  N65  1  0.49766000  0.21452000  0.83318000  1.0
  N  N69  1  0.83318000  0.95464000  0.49766000  1.0
  N  N73  1  0.95464000  0.83318000  0.21452000  1.0
  N  N77  1  0.21452000  0.49766000  0.95464000  1.0
  N  N81  1  0.49766000  0.83318000  0.95464000  1.0
  N  N85  1  0.83318000  0.49766000  0.21452000  1.0
  N  N89  1  0.95464000  0.21452000  0.49766000  1.0
  N  N93  1  0.21452000  0.95464000  0.83318000  1.0
  N  N97  1  0.83318000  0.95464000  0.21452000  1.0
  N  N101  1  0.49766000  0.21452000  0.95464000  1.0
  N  N105  1  0.21452000  0.49766000  0.83318000  1.0
  N  N109  1  0.95464000  0.83318000  0.49766000  1.0
  N  N113  1  0.95464000  0.21452000  0.83318000  1.0
  N  N117  1  0.21452000  0.95464000  0.49766000  1.0
  N  N121  1  0.49766000  0.83318000  0.21452000  1.0
  N  N125  1  0.83318000  0.49766000  0.95464000  1.0
  N  N129  1  0.21452000  0.83318000  0.95464000  1.0
  N  N133  1  0.95464000  0.49766000  0.21452000  1.0
  N  N137  1  0.83318000  0.21452000  0.49766000  1.0
  N  N141  1  0.49766000  0.95464000  0.83318000  1.0
  N  N145  1  0.50234000  0.04536000  0.78548000  1.0
  N  N149  1  0.16682000  0.78548000  0.04536000  1.0
  N  N153  1  0.04536000  0.50234000  0.16682000  1.0
  N  N157  1  0.78548000  0.16682000  0.50234000  1.0
  N  N161  1  0.50234000  0.78548000  0.16682000  1.0
  N  N165  1  0.16682000  0.04536000  0.50234000  1.0
  N  N169  1  0.04536000  0.16682000  0.78548000  1.0
  N  N173  1  0.78548000  0.50234000  0.04536000  1.0
  N  N177  1  0.50234000  0.16682000  0.04536000  1.0
  N  N181  1  0.16682000  0.50234000  0.78548000  1.0
  N  N185  1  0.04536000  0.78548000  0.50234000  1.0
  N  N189  1  0.78548000  0.04536000  0.16682000  1.0
  N  N193  1  0.34520000  0.34520000  0.46440000  1.0
  N  N194  1  0.31250000  0.31250000  0.56250000  1.0
  N  N195  1  0.34520000  0.46440000  0.34520000  1.0
  N  N196  1  0.31250000  0.56250000  0.31250000  1.0
  N  N197  1  0.46440000  0.34520000  0.34520000  1.0
  N  N198  1  0.56250000  0.31250000  0.31250000  1.0
  N  N199  1  0.34520000  0.34520000  0.34520000  1.0
  N  N200  1  0.31250000  0.31250000  0.31250000  1.0
  N  N219  1  0.65480000  0.65480000  0.53560000  1.0
  N  N220  1  0.68750000  0.68750000  0.43750000  1.0
  N  N221  1  0.65480000  0.53560000  0.65480000  1.0
  N  N222  1  0.68750000  0.43750000  0.68750000  1.0
  N  N223  1  0.65480000  0.65480000  0.65480000  1.0
  N  N224  1  0.68750000  0.68750000  0.68750000  1.0
  N  N225  1  0.53560000  0.65480000  0.65480000  1.0
  N  N226  1  0.43750000  0.68750000  0.68750000  1.0
  N  N257  1  0.23280000  0.23280000  0.68038000  1.0
  N  N258  1  0.17860000  0.17860000  0.71032000  1.0
  N  N259  1  0.12790000  0.12790000  0.66262000  1.0
  N  N263  1  0.35402000  0.68038000  0.23280000  1.0
  N  N264  1  0.43248000  0.71032000  0.17860000  1.0
  N  N265  1  0.58158000  0.66262000  0.12790000  1.0
  N  N269  1  0.68038000  0.35402000  0.23280000  1.0
  N  N270  1  0.71032000  0.43248000  0.17860000  1.0
  N  N271  1  0.66262000  0.58158000  0.12790000  1.0
  N  N275  1  0.23280000  0.23280000  0.35402000  1.0
  N  N276  1  0.17860000  0.17860000  0.43248000  1.0
  N  N277  1  0.12790000  0.12790000  0.58158000  1.0
  N  N287  1  0.23280000  0.68038000  0.23280000  1.0
  N  N288  1  0.17860000  0.71032000  0.17860000  1.0
  N  N289  1  0.12790000  0.66262000  0.12790000  1.0
  N  N296  1  0.68038000  0.23280000  0.35402000  1.0
  N  N297  1  0.71032000  0.17860000  0.43248000  1.0
  N  N298  1  0.66262000  0.12790000  0.58158000  1.0
  N  N302  1  0.35402000  0.23280000  0.68038000  1.0
  N  N303  1  0.43248000  0.17860000  0.71032000  1.0
  N  N304  1  0.58158000  0.12790000  0.66262000  1.0
  N  N308  1  0.23280000  0.35402000  0.23280000  1.0
  N  N309  1  0.17860000  0.43248000  0.17860000  1.0
  N  N310  1  0.12790000  0.58158000  0.12790000  1.0
  N  N320  1  0.68038000  0.23280000  0.23280000  1.0
  N  N321  1  0.71032000  0.17860000  0.17860000  1.0
  N  N322  1  0.66262000  0.12790000  0.12790000  1.0
  N  N326  1  0.23280000  0.35402000  0.68038000  1.0
  N  N327  1  0.17860000  0.43248000  0.71032000  1.0
  N  N328  1  0.12790000  0.58158000  0.66262000  1.0
  N  N332  1  0.23280000  0.68038000  0.35402000  1.0
  N  N333  1  0.17860000  0.71032000  0.43248000  1.0
  N  N334  1  0.12790000  0.66262000  0.58158000  1.0
  N  N338  1  0.35402000  0.23280000  0.23280000  1.0
  N  N339  1  0.43248000  0.17860000  0.17860000  1.0
  N  N340  1  0.58158000  0.12790000  0.12790000  1.0
  N  N350  1  0.64598000  0.76720000  0.31962000  1.0
  N  N351  1  0.56752000  0.82140000  0.28968000  1.0
  N  N352  1  0.41842000  0.87210000  0.33738000  1.0
  N  N356  1  0.76720000  0.31962000  0.76720000  1.0
  N  N357  1  0.82140000  0.28968000  0.82140000  1.0
  N  N358  1  0.87210000  0.33738000  0.87210000  1.0
  N  N365  1  0.76720000  0.64598000  0.76720000  1.0
  N  N366  1  0.82140000  0.56752000  0.82140000  1.0
  N  N367  1  0.87210000  0.41842000  0.87210000  1.0
  N  N377  1  0.31962000  0.76720000  0.64598000  1.0
  N  N378  1  0.28968000  0.82140000  0.56752000  1.0
  N  N379  1  0.33738000  0.87210000  0.41842000  1.0
  N  N383  1  0.64598000  0.31962000  0.76720000  1.0
  N  N384  1  0.56752000  0.28968000  0.82140000  1.0
  N  N385  1  0.41842000  0.33738000  0.87210000  1.0
  N  N389  1  0.76720000  0.76720000  0.64598000  1.0
  N  N390  1  0.82140000  0.82140000  0.56752000  1.0
  N  N391  1  0.87210000  0.87210000  0.41842000  1.0
  N  N401  1  0.76720000  0.76720000  0.31962000  1.0
  N  N402  1  0.82140000  0.82140000  0.28968000  1.0
  N  N403  1  0.87210000  0.87210000  0.33738000  1.0
  N  N407  1  0.31962000  0.64598000  0.76720000  1.0
  N  N408  1  0.28968000  0.56752000  0.82140000  1.0
  N  N409  1  0.33738000  0.41842000  0.87210000  1.0
  N  N413  1  0.64598000  0.76720000  0.76720000  1.0
  N  N414  1  0.56752000  0.82140000  0.82140000  1.0
  N  N415  1  0.41842000  0.87210000  0.87210000  1.0
  N  N425  1  0.76720000  0.64598000  0.31962000  1.0
  N  N426  1  0.82140000  0.56752000  0.28968000  1.0
  N  N427  1  0.87210000  0.41842000  0.33738000  1.0
  N  N431  1  0.76720000  0.31962000  0.64598000  1.0
  N  N432  1  0.82140000  0.28968000  0.56752000  1.0
  N  N433  1  0.87210000  0.33738000  0.41842000  1.0
  N  N437  1  0.31962000  0.76720000  0.76720000  1.0
  N  N438  1  0.28968000  0.82140000  0.82140000  1.0
  N  N439  1  0.33738000  0.87210000  0.87210000  1.0
