# generated using pymatgen
data_CdH8C12(NO2)2
_symmetry_space_group_name_H-M   'P 1'
_cell_length_a   12.69100000
_cell_length_b   15.54500000
_cell_length_c   18.34200000
_cell_angle_alpha   90.00000000
_cell_angle_beta   90.00000000
_cell_angle_gamma   90.00000000
_symmetry_Int_Tables_number   1
_chemical_formula_structural   CdH8C12(NO2)2
_chemical_formula_sum   'Cd8 H64 C96 N16 O32'
_cell_volume   3618.53901549
_cell_formula_units_Z   8
loop_
 _symmetry_equiv_pos_site_id
 _symmetry_equiv_pos_as_xyz
  1  'x, y, z'
loop_
 _atom_site_type_symbol
 _atom_site_label
 _atom_site_symmetry_multiplicity
 _atom_site_fract_x
 _atom_site_fract_y
 _atom_site_fract_z
 _atom_site_occupancy
  Cd  Cd0  1  0.18286000  0.71257000  0.68312000  1
  Cd  Cd1  1  0.18286000  0.78743000  0.18312000  1
  Cd  Cd2  1  0.31714000  0.21257000  0.68312000  1
  Cd  Cd3  1  0.31714000  0.28743000  0.18312000  1
  Cd  Cd4  1  0.68286000  0.71257000  0.81688000  1
  Cd  Cd5  1  0.68286000  0.78743000  0.31688000  1
  Cd  Cd6  1  0.81714000  0.21257000  0.81688000  1
  Cd  Cd7  1  0.81714000  0.28743000  0.31688000  1
  H  H8  1  0.00172000  0.22104000  0.20985000  1
  H  H9  1  0.00172000  0.27896000  0.70985000  1
  H  H10  1  0.01815000  0.11131000  0.53076000  1
  H  H11  1  0.01815000  0.38869000  0.03076000  1
  H  H12  1  0.04532000  0.59440000  0.57020000  1
  H  H13  1  0.04532000  0.90560000  0.07020000  1
  H  H14  1  0.08683000  0.11237000  0.03224000  1
  H  H15  1  0.08683000  0.38763000  0.53224000  1
  H  H16  1  0.09874000  0.08176000  0.17664000  1
  H  H17  1  0.09874000  0.41824000  0.67664000  1
  H  H18  1  0.12030000  0.64044000  0.06727000  1
  H  H19  1  0.12030000  0.85956000  0.56727000  1
  H  H20  1  0.13388000  0.05871000  0.69420000  1
  H  H21  1  0.13388000  0.44129000  0.19420000  1
  H  H22  1  0.22417000  0.58412000  0.16718000  1
  H  H23  1  0.22417000  0.91588000  0.66718000  1
  H  H24  1  0.27583000  0.08412000  0.16718000  1
  H  H25  1  0.27583000  0.41588000  0.66718000  1
  H  H26  1  0.36612000  0.55871000  0.69420000  1
  H  H27  1  0.36612000  0.94129000  0.19420000  1
  H  H28  1  0.37970000  0.14044000  0.06727000  1
  H  H29  1  0.37970000  0.35956000  0.56727000  1
  H  H30  1  0.40126000  0.58176000  0.17664000  1
  H  H31  1  0.40126000  0.91824000  0.67664000  1
  H  H32  1  0.41317000  0.61237000  0.03224000  1
  H  H33  1  0.41317000  0.88763000  0.53224000  1
  H  H34  1  0.45468000  0.09440000  0.57020000  1
  H  H35  1  0.45468000  0.40560000  0.07020000  1
  H  H36  1  0.48185000  0.61131000  0.53076000  1
  H  H37  1  0.48185000  0.88869000  0.03076000  1
  H  H38  1  0.49828000  0.72104000  0.20985000  1
  H  H39  1  0.49828000  0.77896000  0.70985000  1
  H  H40  1  0.50172000  0.22104000  0.29015000  1
  H  H41  1  0.50172000  0.27896000  0.79015000  1
  H  H42  1  0.51815000  0.11131000  0.96924000  1
  H  H43  1  0.51815000  0.38869000  0.46924000  1
  H  H44  1  0.54532000  0.59440000  0.92980000  1
  H  H45  1  0.54532000  0.90560000  0.42980000  1
  H  H46  1  0.58683000  0.11237000  0.46776000  1
  H  H47  1  0.58683000  0.38763000  0.96776000  1
  H  H48  1  0.59874000  0.08176000  0.32336000  1
  H  H49  1  0.59874000  0.41824000  0.82336000  1
  H  H50  1  0.62030000  0.64044000  0.43273000  1
  H  H51  1  0.62030000  0.85956000  0.93273000  1
  H  H52  1  0.63388000  0.05871000  0.80580000  1
  H  H53  1  0.63388000  0.44129000  0.30580000  1
  H  H54  1  0.72417000  0.58412000  0.33282000  1
  H  H55  1  0.72417000  0.91588000  0.83282000  1
  H  H56  1  0.77583000  0.08412000  0.33282000  1
  H  H57  1  0.77583000  0.41588000  0.83282000  1
  H  H58  1  0.86612000  0.55871000  0.80580000  1
  H  H59  1  0.86612000  0.94129000  0.30580000  1
  H  H60  1  0.87970000  0.14044000  0.43273000  1
  H  H61  1  0.87970000  0.35956000  0.93273000  1
  H  H62  1  0.90126000  0.58176000  0.32336000  1
  H  H63  1  0.90126000  0.91824000  0.82336000  1
  H  H64  1  0.91317000  0.61237000  0.46776000  1
  H  H65  1  0.91317000  0.88763000  0.96776000  1
  H  H66  1  0.95468000  0.09440000  0.92980000  1
  H  H67  1  0.95468000  0.40560000  0.42980000  1
  H  H68  1  0.98185000  0.61131000  0.96924000  1
  H  H69  1  0.98185000  0.88869000  0.46924000  1
  H  H70  1  0.99828000  0.72104000  0.29015000  1
  H  H71  1  0.99828000  0.77896000  0.79015000  1
  C  C72  1  0.00470000  0.17890000  0.50850000  1
  C  C73  1  0.00470000  0.32110000  0.00850000  1
  C  C74  1  0.01110000  0.50430000  0.25920000  1
  C  C75  1  0.01110000  0.99570000  0.75920000  1
  C  C76  1  0.02600000  0.08110000  0.21310000  1
  C  C77  1  0.02600000  0.41890000  0.71310000  1
  C  C78  1  0.02770000  0.65640000  0.26900000  1
  C  C79  1  0.02770000  0.84360000  0.76900000  1
  C  C80  1  0.02920000  0.66080000  0.54630000  1
  C  C81  1  0.02920000  0.83920000  0.04630000  1
  C  C82  1  0.04340000  0.17030000  0.00880000  1
  C  C83  1  0.04340000  0.32970000  0.50880000  1
  C  C84  1  0.04880000  0.57850000  0.72450000  1
  C  C85  1  0.04880000  0.92150000  0.22450000  1
  C  C86  1  0.06340000  0.24810000  0.53580000  1
  C  C87  1  0.06340000  0.25190000  0.03580000  1
  C  C88  1  0.06910000  0.69500000  0.04560000  1
  C  C89  1  0.06910000  0.80500000  0.54560000  1
  C  C90  1  0.10140000  0.50440000  0.21650000  1
  C  C91  1  0.10140000  0.99560000  0.71650000  1
  C  C92  1  0.14790000  0.23310000  0.59190000  1
  C  C93  1  0.14790000  0.26690000  0.09190000  1
  C  C94  1  0.14990000  0.58210000  0.20210000  1
  C  C95  1  0.14990000  0.91790000  0.70210000  1
  C  C96  1  0.35010000  0.08210000  0.20210000  1
  C  C97  1  0.35010000  0.41790000  0.70210000  1
  C  C98  1  0.35210000  0.73310000  0.59190000  1
  C  C99  1  0.35210000  0.76690000  0.09190000  1
  C  C100  1  0.39860000  0.00440000  0.21650000  1
  C  C101  1  0.39860000  0.49560000  0.71650000  1
  C  C102  1  0.43090000  0.19500000  0.04560000  1
  C  C103  1  0.43090000  0.30500000  0.54560000  1
  C  C104  1  0.43660000  0.74810000  0.53580000  1
  C  C105  1  0.43660000  0.75190000  0.03580000  1
  C  C106  1  0.45120000  0.07850000  0.72450000  1
  C  C107  1  0.45120000  0.42150000  0.22450000  1
  C  C108  1  0.45660000  0.67030000  0.00880000  1
  C  C109  1  0.45660000  0.82970000  0.50880000  1
  C  C110  1  0.47080000  0.16080000  0.54630000  1
  C  C111  1  0.47080000  0.33920000  0.04630000  1
  C  C112  1  0.47230000  0.15640000  0.26900000  1
  C  C113  1  0.47230000  0.34360000  0.76900000  1
  C  C114  1  0.47400000  0.58110000  0.21310000  1
  C  C115  1  0.47400000  0.91890000  0.71310000  1
  C  C116  1  0.48890000  0.00430000  0.25920000  1
  C  C117  1  0.48890000  0.49570000  0.75920000  1
  C  C118  1  0.49530000  0.67890000  0.50850000  1
  C  C119  1  0.49530000  0.82110000  0.00850000  1
  C  C120  1  0.50470000  0.17890000  0.99150000  1
  C  C121  1  0.50470000  0.32110000  0.49150000  1
  C  C122  1  0.51110000  0.50430000  0.24080000  1
  C  C123  1  0.51110000  0.99570000  0.74080000  1
  C  C124  1  0.52600000  0.08110000  0.28690000  1
  C  C125  1  0.52600000  0.41890000  0.78690000  1
  C  C126  1  0.52770000  0.65640000  0.23100000  1
  C  C127  1  0.52770000  0.84360000  0.73100000  1
  C  C128  1  0.52920000  0.66080000  0.95370000  1
  C  C129  1  0.52920000  0.83920000  0.45370000  1
  C  C130  1  0.54340000  0.17030000  0.49120000  1
  C  C131  1  0.54340000  0.32970000  0.99120000  1
  C  C132  1  0.54880000  0.57850000  0.77550000  1
  C  C133  1  0.54880000  0.92150000  0.27550000  1
  C  C134  1  0.56340000  0.24810000  0.96420000  1
  C  C135  1  0.56340000  0.25190000  0.46420000  1
  C  C136  1  0.56910000  0.69500000  0.45440000  1
  C  C137  1  0.56910000  0.80500000  0.95440000  1
  C  C138  1  0.60140000  0.50440000  0.28350000  1
  C  C139  1  0.60140000  0.99560000  0.78350000  1
  C  C140  1  0.64790000  0.23310000  0.90810000  1
  C  C141  1  0.64790000  0.26690000  0.40810000  1
  C  C142  1  0.64990000  0.58210000  0.29790000  1
  C  C143  1  0.64990000  0.91790000  0.79790000  1
  C  C144  1  0.85010000  0.08210000  0.29790000  1
  C  C145  1  0.85010000  0.41790000  0.79790000  1
  C  C146  1  0.85210000  0.73310000  0.90810000  1
  C  C147  1  0.85210000  0.76690000  0.40810000  1
  C  C148  1  0.89860000  0.00440000  0.28350000  1
  C  C149  1  0.89860000  0.49560000  0.78350000  1
  C  C150  1  0.93090000  0.19500000  0.45440000  1
  C  C151  1  0.93090000  0.30500000  0.95440000  1
  C  C152  1  0.93660000  0.74810000  0.96420000  1
  C  C153  1  0.93660000  0.75190000  0.46420000  1
  C  C154  1  0.95120000  0.07850000  0.77550000  1
  C  C155  1  0.95120000  0.42150000  0.27550000  1
  C  C156  1  0.95660000  0.67030000  0.49120000  1
  C  C157  1  0.95660000  0.82970000  0.99120000  1
  C  C158  1  0.97080000  0.16080000  0.95370000  1
  C  C159  1  0.97080000  0.33920000  0.45370000  1
  C  C160  1  0.97230000  0.15640000  0.23100000  1
  C  C161  1  0.97230000  0.34360000  0.73100000  1
  C  C162  1  0.97400000  0.58110000  0.28690000  1
  C  C163  1  0.97400000  0.91890000  0.78690000  1
  C  C164  1  0.98890000  0.00430000  0.24080000  1
  C  C165  1  0.98890000  0.49570000  0.74080000  1
  C  C166  1  0.99530000  0.67890000  0.99150000  1
  C  C167  1  0.99530000  0.82110000  0.49150000  1
  N  N168  1  0.08390000  0.72700000  0.57450000  1
  N  N169  1  0.08390000  0.77300000  0.07450000  1
  N  N170  1  0.11420000  0.65760000  0.22730000  1
  N  N171  1  0.11420000  0.84240000  0.72730000  1
  N  N172  1  0.38580000  0.15760000  0.22730000  1
  N  N173  1  0.38580000  0.34240000  0.72730000  1
  N  N174  1  0.41610000  0.22700000  0.57450000  1
  N  N175  1  0.41610000  0.27300000  0.07450000  1
  N  N176  1  0.58390000  0.72700000  0.92550000  1
  N  N177  1  0.58390000  0.77300000  0.42550000  1
  N  N178  1  0.61420000  0.65760000  0.27270000  1
  N  N179  1  0.61420000  0.84240000  0.77270000  1
  N  N180  1  0.88580000  0.15760000  0.27270000  1
  N  N181  1  0.88580000  0.34240000  0.77270000  1
  N  N182  1  0.91610000  0.22700000  0.92550000  1
  N  N183  1  0.91610000  0.27300000  0.42550000  1
  O  O184  1  0.00550000  0.64940000  0.73940000  1
  O  O185  1  0.00550000  0.85060000  0.23940000  1
  O  O186  1  0.13770000  0.57160000  0.69670000  1
  O  O187  1  0.13770000  0.92840000  0.19670000  1
  O  O188  1  0.17700000  0.15720000  0.60490000  1
  O  O189  1  0.17700000  0.34280000  0.10490000  1
  O  O190  1  0.18830000  0.20260000  0.12160000  1
  O  O191  1  0.18830000  0.29740000  0.62160000  1
  O  O192  1  0.31170000  0.70260000  0.12160000  1
  O  O193  1  0.31170000  0.79740000  0.62160000  1
  O  O194  1  0.32300000  0.65720000  0.60490000  1
  O  O195  1  0.32300000  0.84280000  0.10490000  1
  O  O196  1  0.36230000  0.07160000  0.69670000  1
  O  O197  1  0.36230000  0.42840000  0.19670000  1
  O  O198  1  0.49450000  0.14940000  0.73940000  1
  O  O199  1  0.49450000  0.35060000  0.23940000  1
  O  O200  1  0.50550000  0.64940000  0.76060000  1
  O  O201  1  0.50550000  0.85060000  0.26060000  1
  O  O202  1  0.63770000  0.57160000  0.80330000  1
  O  O203  1  0.63770000  0.92840000  0.30330000  1
  O  O204  1  0.67700000  0.15720000  0.89510000  1
  O  O205  1  0.67700000  0.34280000  0.39510000  1
  O  O206  1  0.68830000  0.20260000  0.37840000  1
  O  O207  1  0.68830000  0.29740000  0.87840000  1
  O  O208  1  0.81170000  0.70260000  0.37840000  1
  O  O209  1  0.81170000  0.79740000  0.87840000  1
  O  O210  1  0.82300000  0.65720000  0.89510000  1
  O  O211  1  0.82300000  0.84280000  0.39510000  1
  O  O212  1  0.86230000  0.07160000  0.80330000  1
  O  O213  1  0.86230000  0.42840000  0.30330000  1
  O  O214  1  0.99450000  0.14940000  0.76060000  1
  O  O215  1  0.99450000  0.35060000  0.26060000  1
