# generated using pymatgen
data_MnH4C8O5
_symmetry_space_group_name_H-M   'P 1'
_cell_length_a   9.73000000
_cell_length_b   11.75500000
_cell_length_c   12.50900000
_cell_angle_alpha   62.69800000
_cell_angle_beta   71.90600000
_cell_angle_gamma   75.29900000
_symmetry_Int_Tables_number   1
_chemical_formula_structural   MnH4C8O5
_chemical_formula_sum   'Mn4 H16 C32 O20'
_cell_volume   1197.93800560
_cell_formula_units_Z   4
loop_
 _symmetry_equiv_pos_site_id
 _symmetry_equiv_pos_as_xyz
  1  'x, y, z'
loop_
 _atom_site_type_symbol
 _atom_site_label
 _atom_site_symmetry_multiplicity
 _atom_site_fract_x
 _atom_site_fract_y
 _atom_site_fract_z
 _atom_site_occupancy
  Mn  Mn0  1  0.00000000  0.00000000  0.00000000  1
  Mn  Mn1  1  0.00000000  0.50000000  0.00000000  1
  Mn  Mn2  1  0.08646000  0.16805000  0.13805000  1
  Mn  Mn3  1  0.91354000  0.83195000  0.86195000  1
  H  H4  1  0.05600000  0.84950000  0.47980000  1
  H  H5  1  0.12700000  0.46420000  0.66350000  1
  H  H6  1  0.17100000  0.62310000  0.29520000  1
  H  H7  1  0.18110000  0.52170000  0.15040000  1
  H  H8  1  0.25490000  0.40390000  0.41720000  1
  H  H9  1  0.39820000  0.52000000  0.84380000  1
  H  H10  1  0.42470000  0.80570000  0.91000000  1
  H  H11  1  0.44300000  0.32190000  0.28120000  1
  H  H12  1  0.55700000  0.67810000  0.71880000  1
  H  H13  1  0.57530000  0.19430000  0.09000000  1
  H  H14  1  0.60180000  0.48000000  0.15620000  1
  H  H15  1  0.74510000  0.59610000  0.58280000  1
  H  H16  1  0.81890000  0.47830000  0.84960000  1
  H  H17  1  0.82900000  0.37690000  0.70480000  1
  H  H18  1  0.87300000  0.53580000  0.33650000  1
  H  H19  1  0.94400000  0.15050000  0.52020000  1
  C  C20  1  0.04320000  0.66980000  0.71250000  1
  C  C21  1  0.07860000  0.76750000  0.48030000  1
  C  C22  1  0.08450000  0.65840000  0.59080000  1
  C  C23  1  0.08850000  0.87110000  0.25330000  1
  C  C24  1  0.10660000  0.75290000  0.37080000  1
  C  C25  1  0.12540000  0.53710000  0.58950000  1
  C  C26  1  0.15060000  0.63200000  0.36890000  1
  C  C27  1  0.15620000  0.74960000  0.96580000  1
  C  C28  1  0.16400000  0.52320000  0.47950000  1
  C  C29  1  0.26950000  0.55460000  0.11970000  1
  C  C30  1  0.28360000  0.67490000  0.02130000  1
  C  C31  1  0.31800000  0.30390000  0.03170000  1
  C  C32  1  0.38850000  0.48310000  0.17230000  1
  C  C33  1  0.41620000  0.72390000  0.97390000  1
  C  C34  1  0.46370000  0.35110000  0.97670000  1
  C  C35  1  0.47820000  0.47100000  0.87710000  1
  C  C36  1  0.52180000  0.52900000  0.12290000  1
  C  C37  1  0.53630000  0.64890000  0.02330000  1
  C  C38  1  0.58380000  0.27610000  0.02610000  1
  C  C39  1  0.61150000  0.51690000  0.82770000  1
  C  C40  1  0.68200000  0.69610000  0.96830000  1
  C  C41  1  0.71640000  0.32510000  0.97870000  1
  C  C42  1  0.73050000  0.44540000  0.88030000  1
  C  C43  1  0.83600000  0.47680000  0.52050000  1
  C  C44  1  0.84380000  0.25040000  0.03420000  1
  C  C45  1  0.84940000  0.36800000  0.63110000  1
  C  C46  1  0.87460000  0.46290000  0.41050000  1
  C  C47  1  0.89340000  0.24710000  0.62920000  1
  C  C48  1  0.91150000  0.12890000  0.74670000  1
  C  C49  1  0.91550000  0.34160000  0.40920000  1
  C  C50  1  0.92140000  0.23250000  0.51970000  1
  C  C51  1  0.95680000  0.33020000  0.28750000  1
  O  O52  1  0.00960000  0.78030000  0.71140000  1
  O  O53  1  0.04560000  0.56410000  0.80740000  1
  O  O54  1  0.05490000  0.85860000  0.17030000  1
  O  O55  1  0.06210000  0.68680000  0.97200000  1
  O  O56  1  0.10390000  0.97480000  0.25050000  1
  O  O57  1  0.14170000  0.87050000  0.91370000  1
  O  O58  1  0.20850000  0.38030000  0.99730000  1
  O  O59  1  0.20990000  0.40040000  0.48580000  1
  O  O60  1  0.30900000  0.18900000  0.10840000  1
  O  O61  1  0.36510000  0.36880000  0.27350000  1
  O  O62  1  0.63490000  0.63120000  0.72650000  1
  O  O63  1  0.69100000  0.81100000  0.89160000  1
  O  O64  1  0.79010000  0.59960000  0.51420000  1
  O  O65  1  0.79150000  0.61970000  0.00270000  1
  O  O66  1  0.85830000  0.12950000  0.08630000  1
  O  O67  1  0.89610000  0.02520000  0.74950000  1
  O  O68  1  0.93790000  0.31320000  0.02800000  1
  O  O69  1  0.94510000  0.14140000  0.82970000  1
  O  O70  1  0.95440000  0.43590000  0.19260000  1
  O  O71  1  0.99040000  0.21970000  0.28860000  1
