# generated using pymatgen
data_Cu3H4WC8S4N5
_symmetry_space_group_name_H-M   'P 1'
_cell_length_a   9.28230000
_cell_length_b   14.57500000
_cell_length_c   19.37100000
_cell_angle_alpha   90.00000000
_cell_angle_beta   98.05000000
_cell_angle_gamma   90.00000000
_symmetry_Int_Tables_number   1
_chemical_formula_structural   Cu3H4WC8S4N5
_chemical_formula_sum   'Cu12 H16 W4 C32 S16 N20'
_cell_volume   2594.86965779
_cell_formula_units_Z   4
loop_
 _symmetry_equiv_pos_site_id
 _symmetry_equiv_pos_as_xyz
  1  'x, y, z'
loop_
 _atom_site_type_symbol
 _atom_site_label
 _atom_site_symmetry_multiplicity
 _atom_site_fract_x
 _atom_site_fract_y
 _atom_site_fract_z
 _atom_site_occupancy
  Cu  Cu0  1  0.11694000  0.14224000  0.31144000  1
  Cu  Cu1  1  0.11694000  0.35776000  0.81144000  1
  Cu  Cu2  1  0.20178000  0.13593000  0.71391000  1
  Cu  Cu3  1  0.20178000  0.36407000  0.21391000  1
  Cu  Cu4  1  0.24557000  0.23308000  0.98306000  1
  Cu  Cu5  1  0.24557000  0.26692000  0.48306000  1
  Cu  Cu6  1  0.75443000  0.73308000  0.51694000  1
  Cu  Cu7  1  0.75443000  0.76692000  0.01694000  1
  Cu  Cu8  1  0.79822000  0.63593000  0.78609000  1
  Cu  Cu9  1  0.79822000  0.86407000  0.28609000  1
  Cu  Cu10  1  0.88306000  0.64224000  0.18856000  1
  Cu  Cu11  1  0.88306000  0.85776000  0.68856000  1
  H  H12  1  0.08450000  0.01060000  0.18760000  1
  H  H13  1  0.08450000  0.48940000  0.68760000  1
  H  H14  1  0.18480000  0.52930000  0.59020000  1
  H  H15  1  0.18480000  0.97070000  0.09020000  1
  H  H16  1  0.42000000  0.15680000  0.25880000  1
  H  H17  1  0.42000000  0.34320000  0.75880000  1
  H  H18  1  0.46420000  0.61800000  0.33350000  1
  H  H19  1  0.46420000  0.88200000  0.83350000  1
  H  H20  1  0.53580000  0.11800000  0.16650000  1
  H  H21  1  0.53580000  0.38200000  0.66650000  1
  H  H22  1  0.58000000  0.65680000  0.24120000  1
  H  H23  1  0.58000000  0.84320000  0.74120000  1
  H  H24  1  0.81520000  0.02930000  0.90980000  1
  H  H25  1  0.81520000  0.47070000  0.40980000  1
  H  H26  1  0.91550000  0.51060000  0.31240000  1
  H  H27  1  0.91550000  0.98940000  0.81240000  1
  W  W28  1  0.22714000  0.18905000  0.84990000  1
  W  W29  1  0.22714000  0.31095000  0.34990000  1
  W  W30  1  0.77286000  0.68905000  0.65010000  1
  W  W31  1  0.77286000  0.81095000  0.15010000  1
  C  C32  1  0.02140000  0.54530000  0.18190000  1
  C  C33  1  0.02140000  0.95470000  0.68190000  1
  C  C34  1  0.17600000  0.03340000  0.18260000  1
  C  C35  1  0.17600000  0.46660000  0.68260000  1
  C  C36  1  0.23520000  0.00830000  0.12410000  1
  C  C37  1  0.23520000  0.49170000  0.62410000  1
  C  C38  1  0.25610000  0.22680000  0.57580000  1
  C  C39  1  0.25610000  0.27320000  0.07580000  1
  C  C40  1  0.37230000  0.04100000  0.11770000  1
  C  C41  1  0.37230000  0.45900000  0.61770000  1
  C  C42  1  0.37260000  0.11830000  0.22460000  1
  C  C43  1  0.37260000  0.38170000  0.72460000  1
  C  C44  1  0.44220000  0.01950000  0.05450000  1
  C  C45  1  0.44220000  0.48050000  0.55450000  1
  C  C46  1  0.44260000  0.09620000  0.16920000  1
  C  C47  1  0.44260000  0.40380000  0.66920000  1
  C  C48  1  0.55740000  0.59620000  0.33080000  1
  C  C49  1  0.55740000  0.90380000  0.83080000  1
  C  C50  1  0.55780000  0.51950000  0.44550000  1
  C  C51  1  0.55780000  0.98050000  0.94550000  1
  C  C52  1  0.62740000  0.61830000  0.27540000  1
  C  C53  1  0.62740000  0.88170000  0.77540000  1
  C  C54  1  0.62770000  0.54100000  0.38230000  1
  C  C55  1  0.62770000  0.95900000  0.88230000  1
  C  C56  1  0.74390000  0.72680000  0.92420000  1
  C  C57  1  0.74390000  0.77320000  0.42420000  1
  C  C58  1  0.76480000  0.50830000  0.37590000  1
  C  C59  1  0.76480000  0.99170000  0.87590000  1
  C  C60  1  0.82400000  0.53340000  0.31740000  1
  C  C61  1  0.82400000  0.96660000  0.81740000  1
  C  C62  1  0.97860000  0.04530000  0.31810000  1
  C  C63  1  0.97860000  0.45470000  0.81810000  1
  S  S64  1  0.03373000  0.21602000  0.77103000  1
  S  S65  1  0.03373000  0.28398000  0.27103000  1
  S  S66  1  0.16465000  0.10120000  0.93416000  1
  S  S67  1  0.16465000  0.39880000  0.43416000  1
  S  S68  1  0.30570000  0.17558000  0.39802000  1
  S  S69  1  0.30570000  0.32442000  0.89802000  1
  S  S70  1  0.39869000  0.12524000  0.80001000  1
  S  S71  1  0.39869000  0.37476000  0.30001000  1
  S  S72  1  0.60131000  0.62524000  0.69999000  1
  S  S73  1  0.60131000  0.87476000  0.19999000  1
  S  S74  1  0.69430000  0.67558000  0.10198000  1
  S  S75  1  0.69430000  0.82442000  0.60198000  1
  S  S76  1  0.83535000  0.60120000  0.56584000  1
  S  S77  1  0.83535000  0.89880000  0.06584000  1
  S  S78  1  0.96627000  0.71602000  0.72897000  1
  S  S79  1  0.96627000  0.78398000  0.22897000  1
  N  N80  1  0.09660000  0.01680000  0.68710000  1
  N  N81  1  0.09660000  0.48320000  0.18710000  1
  N  N82  1  0.24120000  0.08810000  0.23260000  1
  N  N83  1  0.24120000  0.41190000  0.73260000  1
  N  N84  1  0.25000000  0.19610000  0.62980000  1
  N  N85  1  0.25000000  0.30390000  0.12980000  1
  N  N86  1  0.39780000  0.55780000  0.51950000  1
  N  N87  1  0.39780000  0.94220000  0.01950000  1
  N  N88  1  0.45870000  0.57760000  0.46280000  1
  N  N89  1  0.45870000  0.92240000  0.96280000  1
  N  N90  1  0.54130000  0.07760000  0.03720000  1
  N  N91  1  0.54130000  0.42240000  0.53720000  1
  N  N92  1  0.60220000  0.05780000  0.98050000  1
  N  N93  1  0.60220000  0.44220000  0.48050000  1
  N  N94  1  0.75000000  0.69610000  0.87020000  1
  N  N95  1  0.75000000  0.80390000  0.37020000  1
  N  N96  1  0.75880000  0.58810000  0.26740000  1
  N  N97  1  0.75880000  0.91190000  0.76740000  1
  N  N98  1  0.90340000  0.51680000  0.81290000  1
  N  N99  1  0.90340000  0.98320000  0.31290000  1
