# generated using pymatgen
data_Co3H9C24N3O13
_symmetry_space_group_name_H-M   'P 1'
_cell_length_a   22.29730000
_cell_length_b   22.29730000
_cell_length_c   22.29730000
_cell_angle_alpha   90.00000000
_cell_angle_beta   90.00000000
_cell_angle_gamma   90.00000000
_symmetry_Int_Tables_number   1
_chemical_formula_structural   Co3H9C24N3O13
_chemical_formula_sum   'Co24 H72 C192 N24 O104'
_cell_volume   11085.53943868
_cell_formula_units_Z   8
loop_
 _symmetry_equiv_pos_site_id
 _symmetry_equiv_pos_as_xyz
  1  'x, y, z'
loop_
 _atom_site_type_symbol
 _atom_site_label
 _atom_site_symmetry_multiplicity
 _atom_site_fract_x
 _atom_site_fract_y
 _atom_site_fract_z
 _atom_site_occupancy
  Co  Co0  1  0.17686000  0.30823000  0.23986000  1
  Co  Co1  1  0.17686000  0.69177000  0.76014000  1
  Co  Co2  1  0.19177000  0.32314000  0.73986000  1
  Co  Co3  1  0.19177000  0.67686000  0.26014000  1
  Co  Co4  1  0.23986000  0.17686000  0.30823000  1
  Co  Co5  1  0.23986000  0.82314000  0.69177000  1
  Co  Co6  1  0.26014000  0.19177000  0.67686000  1
  Co  Co7  1  0.26014000  0.80823000  0.32314000  1
  Co  Co8  1  0.30823000  0.23986000  0.17686000  1
  Co  Co9  1  0.30823000  0.76014000  0.82314000  1
  Co  Co10  1  0.32314000  0.26014000  0.80823000  1
  Co  Co11  1  0.32314000  0.73986000  0.19177000  1
  Co  Co12  1  0.67686000  0.26014000  0.19177000  1
  Co  Co13  1  0.67686000  0.73986000  0.80823000  1
  Co  Co14  1  0.69177000  0.23986000  0.82314000  1
  Co  Co15  1  0.69177000  0.76014000  0.17686000  1
  Co  Co16  1  0.73986000  0.19177000  0.32314000  1
  Co  Co17  1  0.73986000  0.80823000  0.67686000  1
  Co  Co18  1  0.76014000  0.17686000  0.69177000  1
  Co  Co19  1  0.76014000  0.82314000  0.30823000  1
  Co  Co20  1  0.80823000  0.32314000  0.26014000  1
  Co  Co21  1  0.80823000  0.67686000  0.73986000  1
  Co  Co22  1  0.82314000  0.30823000  0.76014000  1
  Co  Co23  1  0.82314000  0.69177000  0.23986000  1
  H  H24  1  0.00820000  0.24210000  0.71860000  1
  H  H25  1  0.00820000  0.75790000  0.28140000  1
  H  H26  1  0.07460000  0.08380000  0.28850000  1
  H  H27  1  0.07460000  0.91620000  0.71150000  1
  H  H28  1  0.08380000  0.28850000  0.07460000  1
  H  H29  1  0.08380000  0.71150000  0.92540000  1
  H  H30  1  0.09180000  0.29870000  0.89480000  1
  H  H31  1  0.09180000  0.70130000  0.10520000  1
  H  H32  1  0.10520000  0.09180000  0.70130000  1
  H  H33  1  0.10520000  0.90820000  0.29870000  1
  H  H34  1  0.20130000  0.40820000  0.39480000  1
  H  H35  1  0.20130000  0.59180000  0.60520000  1
  H  H36  1  0.21150000  0.41620000  0.57460000  1
  H  H37  1  0.21150000  0.58380000  0.42540000  1
  H  H38  1  0.21860000  0.25790000  0.49180000  1
  H  H39  1  0.21860000  0.74210000  0.50820000  1
  H  H40  1  0.24210000  0.28140000  0.99180000  1
  H  H41  1  0.24210000  0.71860000  0.00820000  1
  H  H42  1  0.25790000  0.49180000  0.21860000  1
  H  H43  1  0.25790000  0.50820000  0.78140000  1
  H  H44  1  0.28140000  0.00820000  0.75790000  1
  H  H45  1  0.28140000  0.99180000  0.24210000  1
  H  H46  1  0.28850000  0.07460000  0.08380000  1
  H  H47  1  0.28850000  0.92540000  0.91620000  1
  H  H48  1  0.29870000  0.10520000  0.90820000  1
  H  H49  1  0.29870000  0.89480000  0.09180000  1
  H  H50  1  0.39480000  0.20130000  0.40820000  1
  H  H51  1  0.39480000  0.79870000  0.59180000  1
  H  H52  1  0.40820000  0.39480000  0.20130000  1
  H  H53  1  0.40820000  0.60520000  0.79870000  1
  H  H54  1  0.41620000  0.42540000  0.78850000  1
  H  H55  1  0.41620000  0.57460000  0.21150000  1
  H  H56  1  0.42540000  0.21150000  0.58380000  1
  H  H57  1  0.42540000  0.78850000  0.41620000  1
  H  H58  1  0.49180000  0.21860000  0.25790000  1
  H  H59  1  0.49180000  0.78140000  0.74210000  1
  H  H60  1  0.50820000  0.21860000  0.74210000  1
  H  H61  1  0.50820000  0.78140000  0.25790000  1
  H  H62  1  0.57460000  0.21150000  0.41620000  1
  H  H63  1  0.57460000  0.78850000  0.58380000  1
  H  H64  1  0.58380000  0.42540000  0.21150000  1
  H  H65  1  0.58380000  0.57460000  0.78850000  1
  H  H66  1  0.59180000  0.39480000  0.79870000  1
  H  H67  1  0.59180000  0.60520000  0.20130000  1
  H  H68  1  0.60520000  0.20130000  0.59180000  1
  H  H69  1  0.60520000  0.79870000  0.40820000  1
  H  H70  1  0.70130000  0.10520000  0.09180000  1
  H  H71  1  0.70130000  0.89480000  0.90820000  1
  H  H72  1  0.71150000  0.07460000  0.91620000  1
  H  H73  1  0.71150000  0.92540000  0.08380000  1
  H  H74  1  0.71860000  0.00820000  0.24210000  1
  H  H75  1  0.71860000  0.99180000  0.75790000  1
  H  H76  1  0.74210000  0.49180000  0.78140000  1
  H  H77  1  0.74210000  0.50820000  0.21860000  1
  H  H78  1  0.75790000  0.28140000  0.00820000  1
  H  H79  1  0.75790000  0.71860000  0.99180000  1
  H  H80  1  0.78140000  0.25790000  0.50820000  1
  H  H81  1  0.78140000  0.74210000  0.49180000  1
  H  H82  1  0.78850000  0.41620000  0.42540000  1
  H  H83  1  0.78850000  0.58380000  0.57460000  1
  H  H84  1  0.79870000  0.40820000  0.60520000  1
  H  H85  1  0.79870000  0.59180000  0.39480000  1
  H  H86  1  0.89480000  0.09180000  0.29870000  1
  H  H87  1  0.89480000  0.90820000  0.70130000  1
  H  H88  1  0.90820000  0.29870000  0.10520000  1
  H  H89  1  0.90820000  0.70130000  0.89480000  1
  H  H90  1  0.91620000  0.28850000  0.92540000  1
  H  H91  1  0.91620000  0.71150000  0.07460000  1
  H  H92  1  0.92540000  0.08380000  0.71150000  1
  H  H93  1  0.92540000  0.91620000  0.28850000  1
  H  H94  1  0.99180000  0.24210000  0.28140000  1
  H  H95  1  0.99180000  0.75790000  0.71860000  1
  C  C96  1  0.01017000  0.20060000  0.71468000  1
  C  C97  1  0.01017000  0.79940000  0.28532000  1
  C  C98  1  0.01554000  0.07784000  0.70580000  1
  C  C99  1  0.01554000  0.92216000  0.29420000  1
  C  C100  1  0.03947000  0.10635000  0.28926000  1
  C  C101  1  0.03947000  0.89365000  0.71074000  1
  C  C102  1  0.04227000  0.16747000  0.28544000  1
  C  C103  1  0.04227000  0.83253000  0.71456000  1
  C  C104  1  0.06556000  0.17299000  0.70902000  1
  C  C105  1  0.06556000  0.82701000  0.29098000  1
  C  C106  1  0.06836000  0.11104000  0.70479000  1
  C  C107  1  0.06836000  0.88896000  0.29521000  1
  C  C108  1  0.07784000  0.29420000  0.98446000  1
  C  C109  1  0.07784000  0.70580000  0.01554000  1
  C  C110  1  0.10443000  0.19663000  0.27921000  1
  C  C111  1  0.10443000  0.80337000  0.72079000  1
  C  C112  1  0.10635000  0.28926000  0.03947000  1
  C  C113  1  0.10635000  0.71074000  0.96053000  1
  C  C114  1  0.11104000  0.29521000  0.93164000  1
  C  C115  1  0.11104000  0.70479000  0.06836000  1
  C  C116  1  0.12401000  0.20690000  0.70784000  1
  C  C117  1  0.12401000  0.79310000  0.29216000  1
  C  C118  1  0.16747000  0.28544000  0.04227000  1
  C  C119  1  0.16747000  0.71456000  0.95773000  1
  C  C120  1  0.17299000  0.29098000  0.93444000  1
  C  C121  1  0.17299000  0.70902000  0.06556000  1
  C  C122  1  0.19663000  0.27921000  0.10443000  1
  C  C123  1  0.19663000  0.72079000  0.89557000  1
  C  C124  1  0.20060000  0.28532000  0.98983000  1
  C  C125  1  0.20060000  0.71468000  0.01017000  1
  C  C126  1  0.20479000  0.38896000  0.43164000  1
  C  C127  1  0.20479000  0.61104000  0.56836000  1
  C  C128  1  0.20580000  0.42216000  0.48446000  1
  C  C129  1  0.20580000  0.57784000  0.51554000  1
  C  C130  1  0.20690000  0.29216000  0.87599000  1
  C  C131  1  0.20690000  0.70784000  0.12401000  1
  C  C132  1  0.20784000  0.29310000  0.37599000  1
  C  C133  1  0.20784000  0.70690000  0.62401000  1
  C  C134  1  0.20902000  0.32701000  0.43444000  1
  C  C135  1  0.20902000  0.67299000  0.56556000  1
  C  C136  1  0.21074000  0.39365000  0.53947000  1
  C  C137  1  0.21074000  0.60635000  0.46053000  1
  C  C138  1  0.21456000  0.33253000  0.54227000  1
  C  C139  1  0.21456000  0.66747000  0.45773000  1
  C  C140  1  0.21468000  0.29940000  0.48983000  1
  C  C141  1  0.21468000  0.70060000  0.51017000  1
  C  C142  1  0.22079000  0.30337000  0.60443000  1
  C  C143  1  0.22079000  0.69663000  0.39557000  1
  C  C144  1  0.27921000  0.10443000  0.19663000  1
  C  C145  1  0.27921000  0.89557000  0.80337000  1
  C  C146  1  0.28532000  0.01017000  0.79940000  1
  C  C147  1  0.28532000  0.98983000  0.20060000  1
  C  C148  1  0.28544000  0.04227000  0.16747000  1
  C  C149  1  0.28544000  0.95773000  0.83253000  1
  C  C150  1  0.28926000  0.03947000  0.10635000  1
  C  C151  1  0.28926000  0.96053000  0.89365000  1
  C  C152  1  0.29098000  0.06556000  0.82701000  1
  C  C153  1  0.29098000  0.93444000  0.17299000  1
  C  C154  1  0.29216000  0.12401000  0.79310000  1
  C  C155  1  0.29216000  0.87599000  0.20690000  1
  C  C156  1  0.29310000  0.37599000  0.20784000  1
  C  C157  1  0.29310000  0.62401000  0.79216000  1
  C  C158  1  0.29420000  0.01554000  0.92216000  1
  C  C159  1  0.29420000  0.98446000  0.07784000  1
  C  C160  1  0.29521000  0.06836000  0.88896000  1
  C  C161  1  0.29521000  0.93164000  0.11104000  1
  C  C162  1  0.29940000  0.48983000  0.21468000  1
  C  C163  1  0.29940000  0.51017000  0.78532000  1
  C  C164  1  0.30337000  0.39557000  0.77921000  1
  C  C165  1  0.30337000  0.60443000  0.22079000  1
  C  C166  1  0.32701000  0.43444000  0.20902000  1
  C  C167  1  0.32701000  0.56556000  0.79098000  1
  C  C168  1  0.33253000  0.45773000  0.78544000  1
  C  C169  1  0.33253000  0.54227000  0.21456000  1
  C  C170  1  0.37599000  0.20784000  0.29310000  1
  C  C171  1  0.37599000  0.79216000  0.70690000  1
  C  C172  1  0.38896000  0.43164000  0.20479000  1
  C  C173  1  0.38896000  0.56836000  0.79521000  1
  C  C174  1  0.39365000  0.46053000  0.78926000  1
  C  C175  1  0.39365000  0.53947000  0.21074000  1
  C  C176  1  0.39557000  0.22079000  0.69663000  1
  C  C177  1  0.39557000  0.77921000  0.30337000  1
  C  C178  1  0.42216000  0.48446000  0.20580000  1
  C  C179  1  0.42216000  0.51554000  0.79420000  1
  C  C180  1  0.43164000  0.20479000  0.38896000  1
  C  C181  1  0.43164000  0.79521000  0.61104000  1
  C  C182  1  0.43444000  0.20902000  0.32701000  1
  C  C183  1  0.43444000  0.79098000  0.67299000  1
  C  C184  1  0.45773000  0.21456000  0.66747000  1
  C  C185  1  0.45773000  0.78544000  0.33253000  1
  C  C186  1  0.46053000  0.21074000  0.60635000  1
  C  C187  1  0.46053000  0.78926000  0.39365000  1
  C  C188  1  0.48446000  0.20580000  0.42216000  1
  C  C189  1  0.48446000  0.79420000  0.57784000  1
  C  C190  1  0.48983000  0.21468000  0.29940000  1
  C  C191  1  0.48983000  0.78532000  0.70060000  1
  C  C192  1  0.51017000  0.21468000  0.70060000  1
  C  C193  1  0.51017000  0.78532000  0.29940000  1
  C  C194  1  0.51554000  0.20580000  0.57784000  1
  C  C195  1  0.51554000  0.79420000  0.42216000  1
  C  C196  1  0.53947000  0.21074000  0.39365000  1
  C  C197  1  0.53947000  0.78926000  0.60635000  1
  C  C198  1  0.54227000  0.21456000  0.33253000  1
  C  C199  1  0.54227000  0.78544000  0.66747000  1
  C  C200  1  0.56556000  0.20902000  0.67299000  1
  C  C201  1  0.56556000  0.79098000  0.32701000  1
  C  C202  1  0.56836000  0.20479000  0.61104000  1
  C  C203  1  0.56836000  0.79521000  0.38896000  1
  C  C204  1  0.57784000  0.48446000  0.79420000  1
  C  C205  1  0.57784000  0.51554000  0.20580000  1
  C  C206  1  0.60443000  0.22079000  0.30337000  1
  C  C207  1  0.60443000  0.77921000  0.69663000  1
  C  C208  1  0.60635000  0.46053000  0.21074000  1
  C  C209  1  0.60635000  0.53947000  0.78926000  1
  C  C210  1  0.61104000  0.43164000  0.79521000  1
  C  C211  1  0.61104000  0.56836000  0.20479000  1
  C  C212  1  0.62401000  0.20784000  0.70690000  1
  C  C213  1  0.62401000  0.79216000  0.29310000  1
  C  C214  1  0.66747000  0.45773000  0.21456000  1
  C  C215  1  0.66747000  0.54227000  0.78544000  1
  C  C216  1  0.67299000  0.43444000  0.79098000  1
  C  C217  1  0.67299000  0.56556000  0.20902000  1
  C  C218  1  0.69663000  0.39557000  0.22079000  1
  C  C219  1  0.69663000  0.60443000  0.77921000  1
  C  C220  1  0.70060000  0.48983000  0.78532000  1
  C  C221  1  0.70060000  0.51017000  0.21468000  1
  C  C222  1  0.70479000  0.06836000  0.11104000  1
  C  C223  1  0.70479000  0.93164000  0.88896000  1
  C  C224  1  0.70580000  0.01554000  0.07784000  1
  C  C225  1  0.70580000  0.98446000  0.92216000  1
  C  C226  1  0.70690000  0.37599000  0.79216000  1
  C  C227  1  0.70690000  0.62401000  0.20784000  1
  C  C228  1  0.70784000  0.12401000  0.20690000  1
  C  C229  1  0.70784000  0.87599000  0.79310000  1
  C  C230  1  0.70902000  0.06556000  0.17299000  1
  C  C231  1  0.70902000  0.93444000  0.82701000  1
  C  C232  1  0.71074000  0.03947000  0.89365000  1
  C  C233  1  0.71074000  0.96053000  0.10635000  1
  C  C234  1  0.71456000  0.04227000  0.83253000  1
  C  C235  1  0.71456000  0.95773000  0.16747000  1
  C  C236  1  0.71468000  0.01017000  0.20060000  1
  C  C237  1  0.71468000  0.98983000  0.79940000  1
  C  C238  1  0.72079000  0.10443000  0.80337000  1
  C  C239  1  0.72079000  0.89557000  0.19663000  1
  C  C240  1  0.77921000  0.30337000  0.39557000  1
  C  C241  1  0.77921000  0.69663000  0.60443000  1
  C  C242  1  0.78532000  0.29940000  0.51017000  1
  C  C243  1  0.78532000  0.70060000  0.48983000  1
  C  C244  1  0.78544000  0.33253000  0.45773000  1
  C  C245  1  0.78544000  0.66747000  0.54227000  1
  C  C246  1  0.78926000  0.39365000  0.46053000  1
  C  C247  1  0.78926000  0.60635000  0.53947000  1
  C  C248  1  0.79098000  0.32701000  0.56556000  1
  C  C249  1  0.79098000  0.67299000  0.43444000  1
  C  C250  1  0.79216000  0.29310000  0.62401000  1
  C  C251  1  0.79216000  0.70690000  0.37599000  1
  C  C252  1  0.79310000  0.29216000  0.12401000  1
  C  C253  1  0.79310000  0.70784000  0.87599000  1
  C  C254  1  0.79420000  0.42216000  0.51554000  1
  C  C255  1  0.79420000  0.57784000  0.48446000  1
  C  C256  1  0.79521000  0.38896000  0.56836000  1
  C  C257  1  0.79521000  0.61104000  0.43164000  1
  C  C258  1  0.79940000  0.28532000  0.01017000  1
  C  C259  1  0.79940000  0.71468000  0.98983000  1
  C  C260  1  0.80337000  0.27921000  0.89557000  1
  C  C261  1  0.80337000  0.72079000  0.10443000  1
  C  C262  1  0.82701000  0.29098000  0.06556000  1
  C  C263  1  0.82701000  0.70902000  0.93444000  1
  C  C264  1  0.83253000  0.28544000  0.95773000  1
  C  C265  1  0.83253000  0.71456000  0.04227000  1
  C  C266  1  0.87599000  0.20690000  0.29216000  1
  C  C267  1  0.87599000  0.79310000  0.70784000  1
  C  C268  1  0.88896000  0.29521000  0.06836000  1
  C  C269  1  0.88896000  0.70479000  0.93164000  1
  C  C270  1  0.89365000  0.28926000  0.96053000  1
  C  C271  1  0.89365000  0.71074000  0.03947000  1
  C  C272  1  0.89557000  0.19663000  0.72079000  1
  C  C273  1  0.89557000  0.80337000  0.27921000  1
  C  C274  1  0.92216000  0.29420000  0.01554000  1
  C  C275  1  0.92216000  0.70580000  0.98446000  1
  C  C276  1  0.93164000  0.11104000  0.29521000  1
  C  C277  1  0.93164000  0.88896000  0.70479000  1
  C  C278  1  0.93444000  0.17299000  0.29098000  1
  C  C279  1  0.93444000  0.82701000  0.70902000  1
  C  C280  1  0.95773000  0.16747000  0.71456000  1
  C  C281  1  0.95773000  0.83253000  0.28544000  1
  C  C282  1  0.96053000  0.10635000  0.71074000  1
  C  C283  1  0.96053000  0.89365000  0.28926000  1
  C  C284  1  0.98446000  0.07784000  0.29420000  1
  C  C285  1  0.98446000  0.92216000  0.70580000  1
  C  C286  1  0.98983000  0.20060000  0.28532000  1
  C  C287  1  0.98983000  0.79940000  0.71468000  1
  N  N288  1  0.01357000  0.29611000  0.97701000  1
  N  N289  1  0.01357000  0.70389000  0.02299000  1
  N  N290  1  0.02299000  0.01357000  0.70389000  1
  N  N291  1  0.02299000  0.98643000  0.29611000  1
  N  N292  1  0.20389000  0.48643000  0.47701000  1
  N  N293  1  0.20389000  0.51357000  0.52299000  1
  N  N294  1  0.29611000  0.02299000  0.98643000  1
  N  N295  1  0.29611000  0.97701000  0.01357000  1
  N  N296  1  0.47701000  0.20389000  0.48643000  1
  N  N297  1  0.47701000  0.79611000  0.51357000  1
  N  N298  1  0.48643000  0.47701000  0.20389000  1
  N  N299  1  0.48643000  0.52299000  0.79611000  1
  N  N300  1  0.51357000  0.47701000  0.79611000  1
  N  N301  1  0.51357000  0.52299000  0.20389000  1
  N  N302  1  0.52299000  0.20389000  0.51357000  1
  N  N303  1  0.52299000  0.79611000  0.48643000  1
  N  N304  1  0.70389000  0.02299000  0.01357000  1
  N  N305  1  0.70389000  0.97701000  0.98643000  1
  N  N306  1  0.79611000  0.48643000  0.52299000  1
  N  N307  1  0.79611000  0.51357000  0.47701000  1
  N  N308  1  0.97701000  0.01357000  0.29611000  1
  N  N309  1  0.97701000  0.98643000  0.70389000  1
  N  N310  1  0.98643000  0.29611000  0.02299000  1
  N  N311  1  0.98643000  0.70389000  0.97701000  1
  O  O312  1  0.10535000  0.24970000  0.26294000  1
  O  O313  1  0.10535000  0.75030000  0.73706000  1
  O  O314  1  0.12158000  0.26171000  0.71925000  1
  O  O315  1  0.12158000  0.73829000  0.28075000  1
  O  O316  1  0.14759000  0.16296000  0.29147000  1
  O  O317  1  0.14759000  0.83704000  0.70853000  1
  O  O318  1  0.16296000  0.29147000  0.14759000  1
  O  O319  1  0.16296000  0.70853000  0.85241000  1
  O  O320  1  0.17002000  0.17627000  0.69599000  1
  O  O321  1  0.17002000  0.82373000  0.30401000  1
  O  O322  1  0.17627000  0.30401000  0.82998000  1
  O  O323  1  0.17627000  0.69599000  0.17002000  1
  O  O324  1  0.19599000  0.32373000  0.32998000  1
  O  O325  1  0.19599000  0.67627000  0.67002000  1
  O  O326  1  0.20853000  0.33704000  0.64759000  1
  O  O327  1  0.20853000  0.66296000  0.35241000  1
  O  O328  1  0.21925000  0.23829000  0.37842000  1
  O  O329  1  0.21925000  0.76171000  0.62158000  1
  O  O330  1  0.23645000  0.23645000  0.23645000  1
  O  O331  1  0.23645000  0.76355000  0.76355000  1
  O  O332  1  0.23706000  0.25030000  0.60535000  1
  O  O333  1  0.23706000  0.74970000  0.39465000  1
  O  O334  1  0.23829000  0.37842000  0.21925000  1
  O  O335  1  0.23829000  0.62158000  0.78075000  1
  O  O336  1  0.24970000  0.26294000  0.10535000  1
  O  O337  1  0.24970000  0.73706000  0.89465000  1
  O  O338  1  0.25030000  0.39465000  0.76294000  1
  O  O339  1  0.25030000  0.60535000  0.23706000  1
  O  O340  1  0.26171000  0.28075000  0.87842000  1
  O  O341  1  0.26171000  0.71925000  0.12158000  1
  O  O342  1  0.26294000  0.10535000  0.24970000  1
  O  O343  1  0.26294000  0.89465000  0.75030000  1
  O  O344  1  0.26355000  0.26355000  0.73645000  1
  O  O345  1  0.26355000  0.73645000  0.26355000  1
  O  O346  1  0.28075000  0.12158000  0.73829000  1
  O  O347  1  0.28075000  0.87842000  0.26171000  1
  O  O348  1  0.29147000  0.14759000  0.16296000  1
  O  O349  1  0.29147000  0.85241000  0.83704000  1
  O  O350  1  0.30401000  0.17002000  0.82373000  1
  O  O351  1  0.30401000  0.82998000  0.17627000  1
  O  O352  1  0.32373000  0.32998000  0.19599000  1
  O  O353  1  0.32373000  0.67002000  0.80401000  1
  O  O354  1  0.32998000  0.19599000  0.32373000  1
  O  O355  1  0.32998000  0.80401000  0.67627000  1
  O  O356  1  0.33704000  0.35241000  0.79147000  1
  O  O357  1  0.33704000  0.64759000  0.20853000  1
  O  O358  1  0.35241000  0.20853000  0.66296000  1
  O  O359  1  0.35241000  0.79147000  0.33704000  1
  O  O360  1  0.37842000  0.21925000  0.23829000  1
  O  O361  1  0.37842000  0.78075000  0.76171000  1
  O  O362  1  0.39465000  0.23706000  0.74970000  1
  O  O363  1  0.39465000  0.76294000  0.25030000  1
  O  O364  1  0.60535000  0.23706000  0.25030000  1
  O  O365  1  0.60535000  0.76294000  0.74970000  1
  O  O366  1  0.62158000  0.21925000  0.76171000  1
  O  O367  1  0.62158000  0.78075000  0.23829000  1
  O  O368  1  0.64759000  0.20853000  0.33704000  1
  O  O369  1  0.64759000  0.79147000  0.66296000  1
  O  O370  1  0.66296000  0.35241000  0.20853000  1
  O  O371  1  0.66296000  0.64759000  0.79147000  1
  O  O372  1  0.67002000  0.19599000  0.67627000  1
  O  O373  1  0.67002000  0.80401000  0.32373000  1
  O  O374  1  0.67627000  0.32998000  0.80401000  1
  O  O375  1  0.67627000  0.67002000  0.19599000  1
  O  O376  1  0.69599000  0.17002000  0.17627000  1
  O  O377  1  0.69599000  0.82998000  0.82373000  1
  O  O378  1  0.70853000  0.14759000  0.83704000  1
  O  O379  1  0.70853000  0.85241000  0.16296000  1
  O  O380  1  0.71925000  0.12158000  0.26171000  1
  O  O381  1  0.71925000  0.87842000  0.73829000  1
  O  O382  1  0.73645000  0.26355000  0.26355000  1
  O  O383  1  0.73645000  0.73645000  0.73645000  1
  O  O384  1  0.73706000  0.10535000  0.75030000  1
  O  O385  1  0.73706000  0.89465000  0.24970000  1
  O  O386  1  0.73829000  0.28075000  0.12158000  1
  O  O387  1  0.73829000  0.71925000  0.87842000  1
  O  O388  1  0.74970000  0.39465000  0.23706000  1
  O  O389  1  0.74970000  0.60535000  0.76294000  1
  O  O390  1  0.75030000  0.26294000  0.89465000  1
  O  O391  1  0.75030000  0.73706000  0.10535000  1
  O  O392  1  0.76171000  0.37842000  0.78075000  1
  O  O393  1  0.76171000  0.62158000  0.21925000  1
  O  O394  1  0.76294000  0.25030000  0.39465000  1
  O  O395  1  0.76294000  0.74970000  0.60535000  1
  O  O396  1  0.76355000  0.23645000  0.76355000  1
  O  O397  1  0.76355000  0.76355000  0.23645000  1
  O  O398  1  0.78075000  0.23829000  0.62158000  1
  O  O399  1  0.78075000  0.76171000  0.37842000  1
  O  O400  1  0.79147000  0.33704000  0.35241000  1
  O  O401  1  0.79147000  0.66296000  0.64759000  1
  O  O402  1  0.80401000  0.32373000  0.67002000  1
  O  O403  1  0.80401000  0.67627000  0.32998000  1
  O  O404  1  0.82373000  0.30401000  0.17002000  1
  O  O405  1  0.82373000  0.69599000  0.82998000  1
  O  O406  1  0.82998000  0.17627000  0.30401000  1
  O  O407  1  0.82998000  0.82373000  0.69599000  1
  O  O408  1  0.83704000  0.29147000  0.85241000  1
  O  O409  1  0.83704000  0.70853000  0.14759000  1
  O  O410  1  0.85241000  0.16296000  0.70853000  1
  O  O411  1  0.85241000  0.83704000  0.29147000  1
  O  O412  1  0.87842000  0.26171000  0.28075000  1
  O  O413  1  0.87842000  0.73829000  0.71925000  1
  O  O414  1  0.89465000  0.24970000  0.73706000  1
  O  O415  1  0.89465000  0.75030000  0.26294000  1
