# generated using pymatgen
data_MgB(PO4)2
_symmetry_space_group_name_H-M   'P 1'
_cell_length_a   9.44620000
_cell_length_b   9.44620000
_cell_length_c   15.75900000
_cell_angle_alpha   90.00000000
_cell_angle_beta   90.00000000
_cell_angle_gamma   120.00000000
_symmetry_Int_Tables_number   1
_chemical_formula_structural   MgB(PO4)2
_chemical_formula_sum   'Mg6 B6 P12 O48'
_cell_volume   1217.79324331
_cell_formula_units_Z   6
loop_
 _symmetry_equiv_pos_site_id
 _symmetry_equiv_pos_as_xyz
  1  'x, y, z'
loop_
 _atom_site_type_symbol
 _atom_site_label
 _atom_site_symmetry_multiplicity
 _atom_site_fract_x
 _atom_site_fract_y
 _atom_site_fract_z
 _atom_site_occupancy
  Mg  Mg0  1  0.89671000  0.44835000  0.91667000  1
  Mg  Mg1  1  0.55164000  0.10328000  0.58333000  1
  Mg  Mg2  1  0.55164000  0.44835000  0.25000000  1
  Mg  Mg3  1  0.44836000  0.55165000  0.75000000  1
  Mg  Mg4  1  0.44836000  0.89672000  0.08333000  1
  Mg  Mg5  1  0.10329000  0.55165000  0.41667000  1
  B  B6  1  0.84900000  0.15100000  0.25000000  1
  B  B7  1  0.84900000  0.69800000  0.58333000  1
  B  B8  1  0.69800000  0.84900000  0.41667000  1
  B  B9  1  0.30200000  0.15100000  0.91667000  1
  B  B10  1  0.15100000  0.30200000  0.08333000  1
  B  B11  1  0.15100000  0.84900000  0.75000000  1
  P  P12  1  0.83004000  0.21708000  0.08085000  1
  P  P13  1  0.83004000  0.61296000  0.75248000  1
  P  P14  1  0.78292000  0.16996000  0.41915000  1
  P  P15  1  0.78292000  0.61296000  0.41418000  1
  P  P16  1  0.61296000  0.78292000  0.58582000  1
  P  P17  1  0.61296000  0.83004000  0.24752000  1
  P  P18  1  0.38704000  0.16996000  0.74752000  1
  P  P19  1  0.38704000  0.21708000  0.08582000  1
  P  P20  1  0.21708000  0.38704000  0.91418000  1
  P  P21  1  0.21708000  0.83004000  0.91915000  1
  P  P22  1  0.16996000  0.38704000  0.25248000  1
  P  P23  1  0.16996000  0.78292000  0.58085000  1
  O  O24  1  0.97810000  0.19000000  0.06553000  1
  O  O25  1  0.97810000  0.78810000  0.76780000  1
  O  O26  1  0.93440000  0.31830000  0.45154000  1
  O  O27  1  0.93440000  0.61610000  0.38179000  1
  O  O28  1  0.86010000  0.37460000  0.04156000  1
  O  O29  1  0.86010000  0.48550000  0.79177000  1
  O  O30  1  0.81980000  0.23530000  0.17913000  1
  O  O31  1  0.81980000  0.58450000  0.65420000  1
  O  O32  1  0.81000000  0.02190000  0.43447000  1
  O  O33  1  0.81000000  0.78810000  0.39886000  1
  O  O34  1  0.78810000  0.81000000  0.60114000  1
  O  O35  1  0.78810000  0.97810000  0.23220000  1
  O  O36  1  0.76470000  0.18020000  0.32087000  1
  O  O37  1  0.76470000  0.58450000  0.51246000  1
  O  O38  1  0.68170000  0.06560000  0.04846000  1
  O  O39  1  0.68170000  0.61610000  0.78487000  1
  O  O40  1  0.62540000  0.13990000  0.45844000  1
  O  O41  1  0.62540000  0.48550000  0.37489000  1
  O  O42  1  0.61610000  0.68170000  0.21513000  1
  O  O43  1  0.61610000  0.93440000  0.61821000  1
  O  O44  1  0.58450000  0.76470000  0.48754000  1
  O  O45  1  0.58450000  0.81980000  0.34580000  1
  O  O46  1  0.51450000  0.13990000  0.70823000  1
  O  O47  1  0.51450000  0.37460000  0.12511000  1
  O  O48  1  0.48550000  0.62540000  0.62511000  1
  O  O49  1  0.48550000  0.86010000  0.20823000  1
  O  O50  1  0.41550000  0.18020000  0.84580000  1
  O  O51  1  0.41550000  0.23530000  0.98754000  1
  O  O52  1  0.38390000  0.06560000  0.11821000  1
  O  O53  1  0.38390000  0.31830000  0.71513000  1
  O  O54  1  0.37460000  0.51450000  0.87489000  1
  O  O55  1  0.37460000  0.86010000  0.95844000  1
  O  O56  1  0.31830000  0.38390000  0.28487000  1
  O  O57  1  0.31830000  0.93440000  0.54846000  1
  O  O58  1  0.23530000  0.41550000  0.01246000  1
  O  O59  1  0.23530000  0.81980000  0.82087000  1
  O  O60  1  0.21190000  0.02190000  0.73220000  1
  O  O61  1  0.21190000  0.19000000  0.10114000  1
  O  O62  1  0.19000000  0.21190000  0.89886000  1
  O  O63  1  0.19000000  0.97810000  0.93447000  1
  O  O64  1  0.18020000  0.41550000  0.15420000  1
  O  O65  1  0.18020000  0.76470000  0.67913000  1
  O  O66  1  0.13990000  0.51450000  0.29177000  1
  O  O67  1  0.13990000  0.62540000  0.54156000  1
  O  O68  1  0.06560000  0.38390000  0.88179000  1
  O  O69  1  0.06560000  0.68170000  0.95154000  1
  O  O70  1  0.02190000  0.21190000  0.26780000  1
  O  O71  1  0.02190000  0.81000000  0.56553000  1
