# generated using pymatgen
data_NiH16C26(N3O2)2
_symmetry_space_group_name_H-M   'P 1'
_cell_length_a   15.69500000
_cell_length_b   15.69500000
_cell_length_c   18.54600000
_cell_angle_alpha   90.00000000
_cell_angle_beta   90.00000000
_cell_angle_gamma   120.00000000
_symmetry_Int_Tables_number   1
_chemical_formula_structural   NiH16C26(N3O2)2
_chemical_formula_sum   'Ni3 H48 C78 N18 O12'
_cell_volume   3956.43037290
_cell_formula_units_Z   3
loop_
 _symmetry_equiv_pos_site_id
 _symmetry_equiv_pos_as_xyz
  1  'x, y, z'
loop_
 _atom_site_type_symbol
 _atom_site_label
 _atom_site_symmetry_multiplicity
 _atom_site_fract_x
 _atom_site_fract_y
 _atom_site_fract_z
 _atom_site_occupancy
  Ni  Ni0  1  1.00000000  0.82243000  0.33333333  1
  Ni  Ni1  1  0.82243000  1.00000000  0.66666667  1
  Ni  Ni2  1  0.17757000  0.17757000  1.00000000  1
  H  H3  1  0.99180000  0.89460000  0.18333000  1
  H  H4  1  0.96670000  0.46020000  0.76917000  1
  H  H5  1  0.96150000  0.10850000  0.41737000  1
  H  H6  1  0.93800000  0.64240000  0.42697000  1
  H  H7  1  0.93390000  0.49490000  0.42877000  1
  H  H8  1  0.93130000  0.31210000  0.71477000  1
  H  H9  1  0.90280000  0.00820000  0.51667000  1
  H  H10  1  0.89810000  0.29650000  0.51477000  1
  H  H11  1  0.89460000  0.99180000  0.81667000  1
  H  H12  1  0.89150000  0.85300000  0.08403000  1
  H  H13  1  0.85300000  0.89150000  0.91597000  1
  H  H14  1  0.84740000  0.19290000  0.61417000  1
  H  H15  1  0.80710000  0.65450000  0.28083000  1
  H  H16  1  0.70440000  0.06200000  0.76030000  1
  H  H17  1  0.70350000  0.60160000  0.18143000  1
  H  H18  1  0.68790000  0.61920000  0.38143000  1
  H  H19  1  0.65450000  0.80710000  0.71917000  1
  H  H20  1  0.64240000  0.93800000  0.57303000  1
  H  H21  1  0.61920000  0.68790000  0.61857000  1
  H  H22  1  0.60160000  0.70350000  0.81857000  1
  H  H23  1  0.56100000  0.06610000  0.76210000  1
  H  H24  1  0.53980000  0.50650000  0.43583000  1
  H  H25  1  0.50650000  0.53980000  0.56417000  1
  H  H26  1  0.50510000  0.43900000  0.09543000  1
  H  H27  1  0.49490000  0.93390000  0.57123000  1
  H  H28  1  0.49350000  0.03330000  0.10250000  1
  H  H29  1  0.46020000  0.96670000  0.23083000  1
  H  H30  1  0.43900000  0.50510000  0.90457000  1
  H  H31  1  0.39840000  0.10190000  0.84810000  1
  H  H32  1  0.38080000  0.06870000  0.04810000  1
  H  H33  1  0.35760000  0.29560000  0.09363000  1
  H  H34  1  0.34550000  0.15260000  0.94750000  1
  H  H35  1  0.31210000  0.93130000  0.28523000  1
  H  H36  1  0.29650000  0.89810000  0.48523000  1
  H  H37  1  0.29560000  0.35760000  0.90637000  1
  H  H38  1  0.19290000  0.84740000  0.38583000  1
  H  H39  1  0.15260000  0.34550000  0.05250000  1
  H  H40  1  0.14700000  0.03850000  0.75070000  1
  H  H41  1  0.10850000  0.96150000  0.58263000  1
  H  H42  1  0.10540000  0.09720000  0.85000000  1
  H  H43  1  0.10190000  0.39840000  0.15190000  1
  H  H44  1  0.09720000  0.10540000  0.15000000  1
  H  H45  1  0.06870000  0.38080000  0.95190000  1
  H  H46  1  0.06610000  0.56100000  0.23790000  1
  H  H47  1  0.06200000  0.70440000  0.23970000  1
  H  H48  1  0.03850000  0.14700000  0.24930000  1
  H  H49  1  0.03330000  0.49350000  0.89750000  1
  H  H50  1  0.00820000  0.90280000  0.48333000  1
  C  C51  1  1.00000000  0.41480000  0.33333333  1
  C  C52  1  1.00000000  0.51170000  0.33333333  1
  C  C53  1  0.97820000  0.41510000  0.79337000  1
  C  C54  1  0.97720000  0.26280000  0.79877000  1
  C  C55  1  0.97000000  0.27770000  0.39027000  1
  C  C56  1  0.96490000  0.17550000  0.75737000  1
  C  C57  1  0.96360000  0.62570000  0.38777000  1
  C  C58  1  0.96130000  0.53700000  0.38957000  1
  C  C59  1  0.95770000  0.32750000  0.76097000  1
  C  C60  1  0.93640000  0.12640000  0.45627000  1
  C  C61  1  0.93270000  0.83530000  0.18323000  1
  C  C62  1  0.93240000  0.21240000  0.45417000  1
  C  C63  1  0.90260000  0.06730000  0.51657000  1
  C  C64  1  0.89990000  0.23820000  0.51367000  1
  C  C65  1  0.87360000  0.81000000  0.12293000  1
  C  C66  1  0.86920000  0.17490000  0.57337000  1
  C  C67  1  0.83530000  0.93270000  0.81677000  1
  C  C68  1  0.82510000  0.69430000  0.24003000  1
  C  C69  1  0.82450000  0.78940000  0.42403000  1
  C  C70  1  0.81000000  0.87360000  0.87707000  1
  C  C71  1  0.78940000  0.82450000  0.57597000  1
  C  C72  1  0.78760000  0.72000000  0.12083000  1
  C  C73  1  0.76180000  0.66170000  0.18033000  1
  C  C74  1  0.73720000  0.71440000  0.46543000  1
  C  C75  1  0.72230000  0.69230000  0.05693000  1
  C  C76  1  0.72000000  0.78760000  0.87917000  1
  C  C77  1  0.71440000  0.73720000  0.53457000  1
  C  C78  1  0.69430000  0.82510000  0.75997000  1
  C  C79  1  0.69230000  0.72230000  0.94307000  1
  C  C80  1  0.67250000  0.63020000  0.42763000  1
  C  C81  1  0.66210000  0.03640000  0.72110000  1
  C  C82  1  0.66170000  0.76180000  0.81967000  1
  C  C83  1  0.63020000  0.67250000  0.57237000  1
  C  C84  1  0.62570000  0.96360000  0.61223000  1
  C  C85  1  0.58520000  0.58520000  1.00000000  1
  C  C86  1  0.58490000  0.56310000  0.46003000  1
  C  C87  1  0.57570000  0.03870000  0.72290000  1
  C  C88  1  0.56310000  0.58490000  0.53997000  1
  C  C89  1  0.53700000  0.96130000  0.61043000  1
  C  C90  1  0.51170000  1.00000000  0.66666667  1
  C  C91  1  0.48830000  0.48830000  1.00000000  1
  C  C92  1  0.46300000  0.42430000  0.05623000  1
  C  C93  1  0.43690000  0.02180000  0.12670000  1
  C  C94  1  0.42430000  0.46300000  0.94377000  1
  C  C95  1  0.41510000  0.97820000  0.20663000  1
  C  C96  1  0.41480000  1.00000000  0.66666667  1
  C  C97  1  0.37430000  0.33790000  0.05443000  1
  C  C98  1  0.36980000  0.04230000  0.09430000  1
  C  C99  1  0.33830000  0.10010000  0.84700000  1
  C  C100  1  0.33790000  0.37430000  0.94557000  1
  C  C101  1  0.32750000  0.95770000  0.23903000  1
  C  C102  1  0.30770000  0.03000000  0.72360000  1
  C  C103  1  0.30570000  0.13080000  0.90670000  1
  C  C104  1  0.28560000  0.02280000  0.13210000  1
  C  C105  1  0.28000000  0.06760000  0.78750000  1
  C  C106  1  0.27770000  0.97000000  0.60973000  1
  C  C107  1  0.26280000  0.97720000  0.20123000  1
  C  C108  1  0.23820000  0.89990000  0.48633000  1
  C  C109  1  0.21240000  0.93240000  0.54583000  1
  C  C110  1  0.21060000  0.03510000  0.09070000  1
  C  C111  1  0.19000000  0.06360000  0.78960000  1
  C  C112  1  0.17550000  0.96490000  0.24263000  1
  C  C113  1  0.17490000  0.86920000  0.42663000  1
  C  C114  1  0.16470000  0.09740000  0.84990000  1
  C  C115  1  0.13080000  0.30570000  0.09330000  1
  C  C116  1  0.12640000  0.93640000  0.54373000  1
  C  C117  1  0.10010000  0.33830000  0.15300000  1
  C  C118  1  0.09740000  0.16470000  0.15010000  1
  C  C119  1  0.06760000  0.28000000  0.21250000  1
  C  C120  1  0.06730000  0.90260000  0.48343000  1
  C  C121  1  0.06360000  0.19000000  0.21040000  1
  C  C122  1  0.04230000  0.36980000  0.90570000  1
  C  C123  1  0.03870000  0.57570000  0.27710000  1
  C  C124  1  0.03640000  0.66210000  0.27890000  1
  C  C125  1  0.03510000  0.21060000  0.90930000  1
  C  C126  1  0.03000000  0.30770000  0.27640000  1
  C  C127  1  0.02280000  0.28560000  0.86790000  1
  C  C128  1  0.02180000  0.43690000  0.87330000  1
  N  N129  1  1.00000000  0.24660000  0.33333333  1
  N  N130  1  0.00000000  0.68880000  0.33333333  1
  N  N131  1  0.96550000  0.36080000  0.39227000  1
  N  N132  1  0.90870000  0.77850000  0.24121000  1
  N  N133  1  0.86980000  0.09130000  0.57455000  1
  N  N134  1  0.77850000  0.90870000  0.75879000  1
  N  N135  1  0.75340000  0.75340000  0.00000000  1
  N  N136  1  0.68880000  1.00000000  0.66666667  1
  N  N137  1  0.63920000  0.60470000  0.05893000  1
  N  N138  1  0.60470000  0.63920000  0.94107000  1
  N  N139  1  0.39530000  0.03450000  0.72560000  1
  N  N140  1  0.36080000  0.96550000  0.60773000  1
  N  N141  1  0.31120000  0.31120000  1.00000000  1
  N  N142  1  0.24660000  0.00000000  0.66666667  1
  N  N143  1  0.22150000  0.13020000  0.90788000  1
  N  N144  1  0.13020000  0.22150000  0.09212000  1
  N  N145  1  0.09130000  0.86980000  0.42545000  1
  N  N146  1  0.03450000  0.39530000  0.27440000  1
  O  O147  1  0.96950000  0.12730000  0.91330000  1
  O  O148  1  0.88030000  0.12520000  0.73041000  1
  O  O149  1  0.87480000  0.75510000  0.39707000  1
  O  O150  1  0.87270000  0.84220000  0.57997000  1
  O  O151  1  0.84220000  0.87270000  0.42003000  1
  O  O152  1  0.75510000  0.87480000  0.60293000  1
  O  O153  1  0.24490000  0.11970000  0.06374000  1
  O  O154  1  0.15780000  0.03050000  0.24663000  1
  O  O155  1  0.12730000  0.96950000  0.08670000  1
  O  O156  1  0.12520000  0.88030000  0.26959000  1
  O  O157  1  0.11970000  0.24490000  0.93626000  1
  O  O158  1  0.03050000  0.15780000  0.75337000  1
