# generated using pymatgen
data_Mn3H36C41N8O9
_symmetry_space_group_name_H-M   'P 1'
_cell_length_a   17.56700000
_cell_length_b   29.87073083
_cell_length_c   29.87073083
_cell_angle_alpha   85.03969034
_cell_angle_beta   72.89939676
_cell_angle_gamma   72.89939676
_symmetry_Int_Tables_number   1
_chemical_formula_structural   Mn3H36C41N8O9
_chemical_formula_sum   'Mn24 H288 C328 N64 O72'
_cell_volume   14319.04945610
_cell_formula_units_Z   8
loop_
 _symmetry_equiv_pos_site_id
 _symmetry_equiv_pos_as_xyz
  1  'x, y, z'
loop_
 _atom_site_type_symbol
 _atom_site_label
 _atom_site_symmetry_multiplicity
 _atom_site_fract_x
 _atom_site_fract_y
 _atom_site_fract_z
 _atom_site_occupancy
  C  C0  1  0.98800000  0.88540000  0.10760000  1
  C  C1  1  0.01900000  0.38540000  0.60760000  1
  C  C2  1  0.93336000  0.57759000  0.40129000  1
  C  C3  1  0.08776000  0.07759000  0.90129000  1
  C  C4  1  0.89172000  0.91415000  0.05501000  1
  C  C5  1  0.13912000  0.41415000  0.55501000  1
  C  C6  1  0.74203000  0.94969000  0.99905000  1
  C  C7  1  0.30923000  0.44969000  0.49905000  1
  C  C8  1  0.13629000  0.50309000  0.43733000  1
  C  C9  1  0.92329000  0.00309000  0.93733000  1
  C  C10  1  0.42950000  0.47030000  0.44590000  1
  C  C11  1  0.65430000  0.97030000  0.94590000  1
  C  C12  1  0.72793000  0.94298000  0.95356000  1
  C  C13  1  0.37553000  0.44298000  0.45356000  1
  C  C14  1  0.20496000  0.93063000  0.94685000  1
  C  C15  1  0.91756000  0.43063000  0.44685000  1
  C  C16  1  0.12999000  0.46163000  0.41439000  1
  C  C17  1  0.99399000  0.96163000  0.91439000  1
  C  C18  1  0.42402000  0.91929000  0.95327000  1
  C  C19  1  0.70342000  0.41929000  0.45327000  1
  C  C20  1  0.17182000  0.89393000  0.97723000  1
  C  C21  1  0.95702000  0.39393000  0.47723000  1
  C  C22  1  0.23220000  0.86402000  0.00178000  1
  C  C23  1  0.90200000  0.36402000  0.50178000  1
  C  C24  1  0.50390000  0.45750000  0.40710000  1
  C  C25  1  0.63150000  0.95750000  0.90710000  1
  C  C26  1  0.80944000  0.53233000  0.32619000  1
  C  C27  1  0.33204000  0.03233000  0.82619000  1
  C  C28  1  0.77071000  0.56221000  0.29557000  1
  C  C29  1  0.37151000  0.06221000  0.79557000  1
  C  C30  1  0.78446000  0.91267000  0.91981000  1
  C  C31  1  0.38306000  0.41267000  0.41981000  1
  C  C32  1  0.48860000  0.87800000  0.95080000  1
  C  C33  1  0.68260000  0.37800000  0.45080000  1
  C  C34  1  0.12420000  0.75150000  0.06470000  1
  C  C35  1  0.05960000  0.25150000  0.56470000  1
  C  C36  1  0.89235000  0.50551000  0.30779000  1
  C  C37  1  0.29435000  0.00551000  0.80779000  1
  C  C38  1  0.81110000  0.56470000  0.24850000  1
  C  C39  1  0.37570000  0.06470000  0.74850000  1
  C  C40  1  0.94109000  0.47377000  0.33545000  1
  C  C41  1  0.24969000  0.97377000  0.83545000  1
  C  C42  1  0.07291000  0.76937000  0.03761000  1
  C  C43  1  0.12011000  0.26937000  0.53761000  1
  C  C44  1  0.49490000  0.43770000  0.36910000  1
  C  C45  1  0.69830000  0.93770000  0.86910000  1
  C  C46  1  0.75770000  0.41600000  0.37980000  1
  C  C47  1  0.44650000  0.91600000  0.87980000  1
  C  C48  1  0.44600000  0.41050000  0.37690000  1
  C  C49  1  0.76660000  0.91050000  0.87690000  1
  C  C50  1  0.93056000  0.50930000  0.25998000  1
  C  C51  1  0.30016000  0.00930000  0.75998000  1
  C  C52  1  0.54860000  0.86540000  0.90360000  1
  C  C53  1  0.68240000  0.36540000  0.40360000  1
  C  C54  1  0.88948000  0.53761000  0.23063000  1
  C  C55  1  0.34228000  0.03761000  0.73063000  1
  C  C56  1  0.16708000  0.70443000  0.06221000  1
  C  C57  1  0.06628000  0.20443000  0.56221000  1
  C  C58  1  0.65711000  0.81549000  0.93889000  1
  C  C59  1  0.58851000  0.31549000  0.43889000  1
  C  C60  1  0.72880000  0.38070000  0.37070000  1
  C  C61  1  0.51980000  0.88070000  0.87070000  1
  C  C62  1  0.06373000  0.84277000  0.90677000  1
  C  C63  1  0.18673000  0.34277000  0.40677000  1
  C  C64  1  0.06014000  0.74002000  0.00930000  1
  C  C65  1  0.19054000  0.24002000  0.50930000  1
  C  C66  1  0.26549000  0.42780000  0.30442000  1
  C  C67  1  0.00229000  0.92780000  0.80442000  1
  C  C68  1  0.62810000  0.82570000  0.89730000  1
  C  C69  1  0.64890000  0.32570000  0.39730000  1
  C  C70  1  0.90440000  0.60760000  0.11460000  1
  C  C71  1  0.37340000  0.10760000  0.61460000  1
  C  C72  1  0.73564000  0.77577000  0.93175000  1
  C  C73  1  0.55684000  0.27577000  0.43175000  1
  C  C74  1  0.15823000  0.67381000  0.03233000  1
  C  C75  1  0.13563000  0.17381000  0.53233000  1
  C  C76  1  0.32867000  0.43474000  0.27032000  1
  C  C77  1  0.96627000  0.93474000  0.77032000  1
  C  C78  1  0.81203000  0.78468000  0.92026000  1
  C  C79  1  0.48303000  0.28468000  0.42026000  1
  C  C80  1  0.10214000  0.69221000  0.00551000  1
  C  C81  1  0.20014000  0.19221000  0.50551000  1
  C  C82  1  0.13277000  0.80602000  0.87904000  1
  C  C83  1  0.18217000  0.30602000  0.37904000  1
  C  C84  1  0.98905000  0.59871000  0.07759000  1
  C  C85  1  0.33465000  0.09871000  0.57759000  1
  C  C86  1  0.20266000  0.41627000  0.25281000  1
  C  C87  1  0.12826000  0.91627000  0.75281000  1
  C  C88  1  0.73659000  0.72968000  0.93474000  1
  C  C89  1  0.59899000  0.22968000  0.43474000  1
  C  C90  1  0.88107000  0.74719000  0.91627000  1
  C  C91  1  0.45547000  0.24719000  0.41627000  1
  C  C92  1  0.20396000  0.81474000  0.84654000  1
  C  C93  1  0.13476000  0.31474000  0.34654000  1
  C  C94  1  0.33261000  0.43175000  0.22423000  1
  C  C95  1  0.01141000  0.93175000  0.72423000  1
  C  C96  1  0.12871000  0.75952000  0.88486000  1
  C  C97  1  0.22691000  0.25952000  0.38486000  1
  C  C98  1  0.05327000  0.55501000  0.08585000  1
  C  C99  1  0.30587000  0.05501000  0.58585000  1
  C  C100  1  0.08514000  0.66455000  0.97377000  1
  C  C101  1  0.27654000  0.16455000  0.47377000  1
  C  C102  1  0.76602000  0.50178000  0.13598000  1
  C  C103  1  0.59622000  0.00178000  0.63598000  1
  C  C104  1  0.95106000  0.35976000  0.27672000  1
  C  C105  1  0.41246000  0.85976000  0.77672000  1
  C  C106  1  0.26771000  0.42026000  0.21532000  1
  C  C107  1  0.09671000  0.92026000  0.71532000  1
  C  C108  1  0.98643000  0.38486000  0.24048000  1
  C  C109  1  0.38823000  0.88486000  0.74048000  1
  C  C110  1  0.40400000  0.43889000  0.18451000  1
  C  C111  1  0.97260000  0.93889000  0.68451000  1
  C  C112  1  0.80671000  0.69558000  0.92780000  1
  C  C113  1  0.56991000  0.19558000  0.42780000  1
  C  C114  1  0.26647000  0.77689000  0.82217000  1
  C  C115  1  0.13447000  0.27689000  0.32217000  1
  C  C116  1  0.91182000  0.32916000  0.26780000  1
  C  C117  1  0.49122000  0.82916000  0.76780000  1
  C  C118  1  0.85095000  0.47723000  0.10607000  1
  C  C119  1  0.56575000  0.97723000  0.60607000  1
  C  C120  1  0.18918000  0.72328000  0.85976000  1
  C  C121  1  0.22778000  0.22328000  0.35976000  1
  C  C122  1  0.98819000  0.37904000  0.19398000  1
  C  C123  1  0.43879000  0.87904000  0.69398000  1
  C  C124  1  0.56060000  0.45080000  0.12200000  1
  C  C125  1  0.86660000  0.95080000  0.62200000  1
  C  C126  1  0.47460000  0.39730000  0.17430000  1
  C  C127  1  0.95380000  0.89730000  0.67430000  1
  C  C128  1  0.56740000  0.63090000  0.93770000  1
  C  C129  1  0.86400000  0.13090000  0.43770000  1
  C  C130  1  0.86062000  0.56267000  0.00309000  1
  C  C131  1  0.57362000  0.06267000  0.50309000  1
  C  C132  1  0.02950000  0.40677000  0.15723000  1
  C  C133  1  0.40650000  0.90677000  0.65723000  1
  C  C134  1  0.25902000  0.73220000  0.82916000  1
  C  C135  1  0.17962000  0.23220000  0.32916000  1
  C  C136  1  0.53860000  0.59290000  0.95750000  1
  C  C137  1  0.91100000  0.09290000  0.45750000  1
  C  C138  1  0.25892000  0.49905000  0.05031000  1
  C  C139  1  0.19172000  0.99905000  0.55031000  1
  C  C140  1  0.90838000  0.58561000  0.96163000  1
  C  C141  1  0.54438000  0.08561000  0.46163000  1
  C  C142  1  0.91136000  0.32217000  0.22311000  1
  C  C143  1  0.54336000  0.82217000  0.72311000  1
  C  C144  1  0.54780000  0.40360000  0.13460000  1
  C  C145  1  0.91400000  0.90360000  0.63460000  1
  C  C146  1  0.32630000  0.62020000  0.91600000  1
  C  C147  1  0.13750000  0.12020000  0.41600000  1
  C  C148  1  0.62271000  0.45327000  0.08071000  1
  C  C149  1  0.84331000  0.95327000  0.58071000  1
  C  C150  1  0.64350000  0.62310000  0.91050000  1
  C  C151  1  0.82290000  0.12310000  0.41050000  1
  C  C152  1  0.94950000  0.34654000  0.18526000  1
  C  C153  1  0.51870000  0.84654000  0.68526000  1
  C  C154  1  0.60020000  0.55410000  0.97030000  1
  C  C155  1  0.87540000  0.05410000  0.47030000  1
  C  C156  1  0.84819000  0.44685000  0.06937000  1
  C  C157  1  0.63559000  0.94685000  0.56937000  1
  C  C158  1  0.31851000  0.45356000  0.05702000  1
  C  C159  1  0.17091000  0.95356000  0.55702000  1
  C  C160  1  0.39050000  0.62930000  0.88070000  1
  C  C161  1  0.09950000  0.12930000  0.38070000  1
  C  C162  1  0.29573000  0.41981000  0.08733000  1
  C  C163  1  0.19713000  0.91981000  0.58733000  1
  C  C164  1  0.70427000  0.58019000  0.91267000  1
  C  C165  1  0.80287000  0.08019000  0.41267000  1
  C  C166  1  0.60950000  0.37070000  0.11930000  1
  C  C167  1  0.90050000  0.87070000  0.61930000  1
  C  C168  1  0.68149000  0.54644000  0.94298000  1
  C  C169  1  0.82909000  0.04644000  0.44298000  1
  C  C170  1  0.15181000  0.55315000  0.93063000  1
  C  C171  1  0.36441000  0.05315000  0.43063000  1
  C  C172  1  0.39980000  0.44590000  0.02970000  1
  C  C173  1  0.12460000  0.94590000  0.52970000  1
  C  C174  1  0.05050000  0.65346000  0.81474000  1
  C  C175  1  0.48130000  0.15346000  0.31474000  1
  C  C176  1  0.35650000  0.37690000  0.08950000  1
  C  C177  1  0.17710000  0.87690000  0.58950000  1
  C  C178  1  0.37729000  0.54673000  0.91929000  1
  C  C179  1  0.15669000  0.04673000  0.41929000  1
  C  C180  1  0.67370000  0.37980000  0.08400000  1
  C  C181  1  0.86250000  0.87980000  0.58400000  1
  C  C182  1  0.45220000  0.59640000  0.86540000  1
  C  C183  1  0.08600000  0.09640000  0.36540000  1
  C  C184  1  0.08864000  0.67783000  0.77689000  1
  C  C185  1  0.45664000  0.17783000  0.27689000  1
  C  C186  1  0.09162000  0.41439000  0.03837000  1
  C  C187  1  0.45562000  0.91439000  0.53837000  1
  C  C188  1  0.74108000  0.50095000  0.94969000  1
  C  C189  1  0.80828000  0.00095000  0.44969000  1
  C  C190  1  0.46140000  0.40710000  0.04250000  1
  C  C191  1  0.08900000  0.90710000  0.54250000  1
  C  C192  1  0.74098000  0.26780000  0.17084000  1
  C  C193  1  0.82038000  0.76780000  0.67084000  1
  C  C194  1  0.97050000  0.59323000  0.84277000  1
  C  C195  1  0.59350000  0.09323000  0.34277000  1
  C  C196  1  0.13938000  0.43733000  0.99691000  1
  C  C197  1  0.42638000  0.93733000  0.49691000  1
  C  C198  1  0.43260000  0.36910000  0.06230000  1
  C  C199  1  0.13600000  0.86910000  0.56230000  1
  C  C200  1  0.52540000  0.60270000  0.82570000  1
  C  C201  1  0.04620000  0.10270000  0.32570000  1
  C  C202  1  0.43940000  0.54920000  0.87800000  1
  C  C203  1  0.13340000  0.04920000  0.37800000  1
  C  C204  1  0.01181000  0.62096000  0.80602000  1
  C  C205  1  0.56121000  0.12096000  0.30602000  1
  C  C206  1  0.81082000  0.27672000  0.14024000  1
  C  C207  1  0.77222000  0.77672000  0.64024000  1
  C  C208  1  0.14905000  0.52277000  0.89393000  1
  C  C209  1  0.43425000  0.02277000  0.39393000  1
  C  C210  1  0.08818000  0.67084000  0.73220000  1
  C  C211  1  0.50878000  0.17084000  0.23220000  1
  C  C212  1  0.73353000  0.22311000  0.17783000  1
  C  C213  1  0.86553000  0.72311000  0.67783000  1
  C  C214  1  0.19329000  0.30442000  0.07220000  1
  C  C215  1  0.43009000  0.80442000  0.57220000  1
  C  C216  1  0.59600000  0.56111000  0.81549000  1
  C  C217  1  0.02740000  0.06111000  0.31549000  1
  C  C218  1  0.01357000  0.61514000  0.75952000  1
  C  C219  1  0.61177000  0.11514000  0.25952000  1
  C  C220  1  0.73229000  0.57974000  0.78468000  1
  C  C221  1  0.90329000  0.07974000  0.28468000  1
  C  C222  1  0.04894000  0.64024000  0.72328000  1
  C  C223  1  0.58754000  0.14024000  0.22328000  1
  C  C224  1  0.23398000  0.49822000  0.86402000  1
  C  C225  1  0.40378000  0.99822000  0.36402000  1
  C  C226  1  0.91486000  0.33545000  0.02623000  1
  C  C227  1  0.72346000  0.83545000  0.52623000  1
  C  C228  1  0.94673000  0.44499000  0.91415000  1
  C  C229  1  0.69413000  0.94499000  0.41415000  1
  C  C230  1  0.87129000  0.24048000  0.11514000  1
  C  C231  1  0.77309000  0.74048000  0.61514000  1
  C  C232  1  0.66739000  0.56825000  0.77577000  1
  C  C233  1  0.98859000  0.06825000  0.27577000  1
  C  C234  1  0.79604000  0.18526000  0.15346000  1
  C  C235  1  0.86524000  0.68526000  0.65346000  1
  C  C236  1  0.11893000  0.25281000  0.08373000  1
  C  C237  1  0.54453000  0.75281000  0.58373000  1
  C  C238  1  0.26341000  0.27032000  0.06526000  1
  C  C239  1  0.40101000  0.77032000  0.56526000  1
  C  C240  1  0.79734000  0.58373000  0.74719000  1
  C  C241  1  0.87174000  0.08373000  0.24719000  1
  C  C242  1  0.01095000  0.40129000  0.92241000  1
  C  C243  1  0.66535000  0.90129000  0.42241000  1
  C  C244  1  0.86723000  0.19398000  0.12096000  1
  C  C245  1  0.81783000  0.69398000  0.62096000  1
  C  C246  1  0.89786000  0.30779000  0.99449000  1
  C  C247  1  0.79986000  0.80779000  0.49449000  1
  C  C248  1  0.18797000  0.21532000  0.07974000  1
  C  C249  1  0.51697000  0.71532000  0.57974000  1
  C  C250  1  0.67133000  0.56526000  0.72968000  1
  C  C251  1  0.03373000  0.06526000  0.22968000  1
  C  C252  1  0.84177000  0.32619000  0.96767000  1
  C  C253  1  0.86437000  0.82619000  0.46767000  1
  C  C254  1  0.26436000  0.22423000  0.06825000  1
  C  C255  1  0.44316000  0.72423000  0.56825000  1
  C  C256  1  0.09560000  0.39240000  0.88540000  1
  C  C257  1  0.62660000  0.89240000  0.38540000  1
  C  C258  1  0.37190000  0.17430000  0.10270000  1
  C  C259  1  0.35110000  0.67430000  0.60270000  1
  C  C260  1  0.73451000  0.57220000  0.69558000  1
  C  C261  1  0.99771000  0.07220000  0.19558000  1
  C  C262  1  0.93986000  0.25998000  0.99070000  1
  C  C263  1  0.80946000  0.75998000  0.49070000  1
  C  C264  1  0.93627000  0.15723000  0.09323000  1
  C  C265  1  0.81327000  0.65723000  0.59323000  1
  C  C266  1  0.27120000  0.61930000  0.62930000  1
  C  C267  1  0.48020000  0.11930000  0.12930000  1
  C  C268  1  0.34289000  0.18451000  0.06111000  1
  C  C269  1  0.41149000  0.68451000  0.56111000  1
  C  C270  1  0.83292000  0.29557000  0.93779000  1
  C  C271  1  0.93372000  0.79557000  0.43779000  1
  C  C272  1  0.11052000  0.46239000  0.76937000  1
  C  C273  1  0.65772000  0.96239000  0.26937000  1
  C  C274  1  0.45140000  0.13460000  0.09640000  1
  C  C275  1  0.31760000  0.63460000  0.59640000  1
  C  C276  1  0.06944000  0.49070000  0.74002000  1
  C  C277  1  0.69984000  0.99070000  0.24002000  1
  C  C278  1  0.55400000  0.58950000  0.62310000  1
  C  C279  1  0.23340000  0.08950000  0.12310000  1
  C  C280  1  0.24230000  0.58400000  0.62020000  1
  C  C281  1  0.55350000  0.08400000  0.12020000  1
  C  C282  1  0.50510000  0.56230000  0.63090000  1
  C  C283  1  0.30170000  0.06230000  0.13090000  1
  C  C284  1  0.92709000  0.23063000  0.96239000  1
  C  C285  1  0.87989000  0.73063000  0.46239000  1
  C  C286  1  0.05891000  0.52623000  0.66455000  1
  C  C287  1  0.75031000  0.02623000  0.16455000  1
  C  C288  1  0.18890000  0.43530000  0.75150000  1
  C  C289  1  0.62430000  0.93530000  0.25150000  1
  C  C290  1  0.10765000  0.49449000  0.69221000  1
  C  C291  1  0.70565000  0.99449000  0.19221000  1
  C  C292  1  0.87580000  0.24850000  0.93530000  1
  C  C293  1  0.94040000  0.74850000  0.43530000  1
  C  C294  1  0.51140000  0.12200000  0.04920000  1
  C  C295  1  0.31740000  0.62200000  0.54920000  1
  C  C296  1  0.21554000  0.08733000  0.08019000  1
  C  C297  1  0.61694000  0.58733000  0.58019000  1
  C  C298  1  0.22929000  0.43779000  0.70443000  1
  C  C299  1  0.62849000  0.93779000  0.20443000  1
  C  C300  1  0.19056000  0.46767000  0.67381000  1
  C  C301  1  0.66796000  0.96767000  0.17381000  1
  C  C302  1  0.49610000  0.54250000  0.59290000  1
  C  C303  1  0.36850000  0.04250000  0.09290000  1
  C  C304  1  0.76780000  0.13598000  0.99822000  1
  C  C305  1  0.09800000  0.63598000  0.49822000  1
  C  C306  1  0.82818000  0.10607000  0.02277000  1
  C  C307  1  0.04298000  0.60607000  0.52277000  1
  C  C308  1  0.57598000  0.08071000  0.04673000  1
  C  C309  1  0.29658000  0.58071000  0.54673000  1
  C  C310  1  0.87001000  0.53837000  0.58561000  1
  C  C311  1  0.00601000  0.03837000  0.08561000  1
  C  C312  1  0.79504000  0.06937000  0.05315000  1
  C  C313  1  0.08244000  0.56937000  0.55315000  1
  C  C314  1  0.27207000  0.05702000  0.04644000  1
  C  C315  1  0.62447000  0.55702000  0.54644000  1
  C  C316  1  0.57050000  0.52970000  0.55410000  1
  C  C317  1  0.34570000  0.02970000  0.05410000  1
  C  C318  1  0.86371000  0.49691000  0.56267000  1
  C  C319  1  0.07671000  0.99691000  0.06267000  1
  C  C320  1  0.25797000  0.05031000  0.00095000  1
  C  C321  1  0.69077000  0.55031000  0.50095000  1
  C  C322  1  0.10828000  0.08585000  0.94499000  1
  C  C323  1  0.86088000  0.58585000  0.44499000  1
  C  C324  1  0.06664000  0.42241000  0.59871000  1
  C  C325  1  0.91224000  0.92241000  0.09871000  1
  C  C326  1  0.01200000  0.11460000  0.89240000  1
  C  C327  1  0.98100000  0.61460000  0.39240000  1
  H  H328  1  0.08200000  0.52730000  0.44530000  1
  H  H329  1  0.94540000  0.02730000  0.94530000  1
  H  H330  1  0.02730000  0.60660000  0.36380000  1
  H  H331  1  0.00230000  0.10660000  0.86380000  1
  H  H332  1  0.97760000  0.85460000  0.11140000  1
  H  H333  1  0.05640000  0.35460000  0.61140000  1
  H  H334  1  0.03700000  0.88460000  0.08100000  1
  H  H335  1  0.99740000  0.38460000  0.58100000  1
  H  H336  1  0.41810000  0.49640000  0.46540000  1
  H  H337  1  0.62010000  0.99640000  0.96540000  1
  H  H338  1  0.15210000  0.49320000  0.46660000  1
  H  H339  1  0.88810000  0.99320000  0.96660000  1
  H  H340  1  0.91270000  0.57680000  0.37400000  1
  H  H341  1  0.13650000  0.07680000  0.87400000  1
  H  H342  1  0.97230000  0.54650000  0.40370000  1
  H  H343  1  0.07750000  0.04650000  0.90370000  1
  H  H344  1  0.39280000  0.93360000  0.98280000  1
  H  H345  1  0.69080000  0.43360000  0.48280000  1
  H  H346  1  0.11970000  0.90940000  0.00080000  1
  H  H347  1  0.97010000  0.40940000  0.50080000  1
  H  H348  1  0.24600000  0.88390000  0.02090000  1
  H  H349  1  0.84920000  0.38390000  0.52090000  1
  H  H350  1  0.71530000  0.58130000  0.30750000  1
  H  H351  1  0.39590000  0.08130000  0.80750000  1
  H  H352  1  0.55500000  0.46210000  0.40750000  1
  H  H353  1  0.57540000  0.96210000  0.90750000  1
  H  H354  1  0.20720000  0.84140000  0.02200000  1
  H  H355  1  0.92940000  0.34140000  0.52200000  1
  H  H356  1  0.13090000  0.77140000  0.08560000  1
  H  H357  1  0.01210000  0.27140000  0.58560000  1
  H  H358  1  0.04580000  0.80200000  0.03820000  1
  H  H359  1  0.11400000  0.30200000  0.53820000  1
  H  H360  1  0.49400000  0.85910000  0.97750000  1
  H  H361  1  0.66940000  0.35910000  0.47750000  1
  H  H362  1  0.15880000  0.87380000  0.95760000  1
  H  H363  1  0.00980000  0.37380000  0.45760000  1
  H  H364  1  0.28280000  0.84710000  0.97850000  1
  H  H365  1  0.89160000  0.34710000  0.47850000  1
  H  H366  1  0.78350000  0.58560000  0.22860000  1
  H  H367  1  0.40230000  0.08560000  0.72860000  1
  H  H368  1  0.66700000  0.84400000  0.94800000  1
  H  H369  1  0.54100000  0.34400000  0.44800000  1
  H  H370  1  0.52380000  0.44380000  0.33800000  1
  H  H371  1  0.69440000  0.94380000  0.83800000  1
  H  H372  1  0.79910000  0.42280000  0.35380000  1
  H  H373  1  0.42430000  0.92280000  0.85380000  1
  H  H374  1  0.20340000  0.69250000  0.08130000  1
  H  H375  1  0.02280000  0.19250000  0.58130000  1
  H  H376  1  0.61320000  0.80750000  0.96490000  1
  H  H377  1  0.61440000  0.30750000  0.46490000  1
  H  H378  1  0.26700000  0.42880000  0.33580000  1
  H  H379  1  0.96840000  0.92880000  0.83580000  1
  H  H380  1  0.91100000  0.61140000  0.14540000  1
  H  H381  1  0.33220000  0.11140000  0.64540000  1
  H  H382  1  0.02160000  0.75270000  0.99170000  1
  H  H383  1  0.23400000  0.25270000  0.49170000  1
  H  H384  1  0.86610000  0.63620000  0.10660000  1
  H  H385  1  0.39110000  0.13620000  0.60660000  1
  H  H386  1  0.45260000  0.38910000  0.35350000  1
  H  H387  1  0.80480000  0.88910000  0.85350000  1
  H  H388  1  0.98670000  0.49170000  0.24730000  1
  H  H389  1  0.27430000  0.99170000  0.74730000  1
  H  H390  1  0.91600000  0.53820000  0.19800000  1
  H  H391  1  0.34780000  0.03820000  0.69800000  1
  H  H392  1  0.81650000  0.81570000  0.91530000  1
  H  H393  1  0.45250000  0.31570000  0.41530000  1
  H  H394  1  0.37240000  0.44200000  0.27800000  1
  H  H395  1  0.90760000  0.94200000  0.77800000  1
  H  H396  1  0.74430000  0.36840000  0.34000000  1
  H  H397  1  0.54730000  0.86840000  0.84000000  1
  H  H398  1  0.67210000  0.83380000  0.87140000  1
  H  H399  1  0.62270000  0.33380000  0.37140000  1
  H  H400  1  0.01050000  0.62600000  0.07680000  1
  H  H401  1  0.28670000  0.12600000  0.57680000  1
  H  H402  1  0.88200000  0.58100000  0.11540000  1
  H  H403  1  0.42160000  0.08100000  0.61540000  1
  H  H404  1  0.61900000  0.79710000  0.88810000  1
  H  H405  1  0.69580000  0.29710000  0.38810000  1
  H  H406  1  0.77080000  0.52200000  0.15860000  1
  H  H407  1  0.54860000  0.02200000  0.65860000  1
  H  H408  1  0.95340000  0.36330000  0.30750000  1
  H  H409  1  0.37580000  0.86330000  0.80750000  1
  H  H410  1  0.93290000  0.75360000  0.91080000  1
  H  H411  1  0.40270000  0.25360000  0.41080000  1
  H  H412  1  0.68560000  0.72200000  0.94200000  1
  H  H413  1  0.65040000  0.22200000  0.44200000  1
  H  H414  1  0.08200000  0.75310000  0.90710000  1
  H  H415  1  0.25780000  0.25310000  0.40710000  1
  H  H416  1  0.42190000  0.46490000  0.19250000  1
  H  H417  1  0.92070000  0.96490000  0.69250000  1
  H  H418  1  0.15630000  0.41080000  0.24640000  1
  H  H419  1  0.18650000  0.91080000  0.74640000  1
  H  H420  1  0.01090000  0.40710000  0.24690000  1
  H  H421  1  0.33510000  0.90710000  0.74690000  1
  H  H422  1  0.98120000  0.59630000  0.04650000  1
  H  H423  1  0.37600000  0.09630000  0.54650000  1
  H  H424  1  0.73310000  0.52090000  0.11610000  1
  H  H425  1  0.62990000  0.02090000  0.61610000  1
  H  H426  1  0.73870000  0.47850000  0.15290000  1
  H  H427  1  0.62990000  0.97850000  0.65290000  1
  H  H428  1  0.52850000  0.47750000  0.14090000  1
  H  H429  1  0.85310000  0.97750000  0.64090000  1
  H  H430  1  0.53240000  0.66200000  0.94380000  1
  H  H431  1  0.86180000  0.16200000  0.44380000  1
  H  H432  1  0.88480000  0.31260000  0.29300000  1
  H  H433  1  0.50960000  0.81260000  0.79300000  1
  H  H434  1  0.38500000  0.44800000  0.15600000  1
  H  H435  1  0.01100000  0.94800000  0.65600000  1
  H  H436  1  0.26820000  0.41530000  0.18430000  1
  H  H437  1  0.13220000  0.91530000  0.68430000  1
  H  H438  1  0.80420000  0.66420000  0.92880000  1
  H  H439  1  0.60280000  0.16420000  0.42880000  1
  H  H440  1  0.87950000  0.50080000  0.09060000  1
  H  H441  1  0.52910000  0.00080000  0.59060000  1
  H  H442  1  0.49290000  0.38810000  0.20290000  1
  H  H443  1  0.91610000  0.88810000  0.70290000  1
  H  H444  1  0.88360000  0.45760000  0.12620000  1
  H  H445  1  0.53260000  0.95760000  0.62620000  1
  H  H446  1  0.31480000  0.78220000  0.80040000  1
  H  H447  1  0.10260000  0.28220000  0.30040000  1
  H  H448  1  0.89070000  0.55470000  0.02730000  1
  H  H449  1  0.52730000  0.05470000  0.52730000  1
  H  H450  1  0.27810000  0.64620000  0.92280000  1
  H  H451  1  0.15290000  0.14620000  0.42280000  1
  H  H452  1  0.18330000  0.69250000  0.86330000  1
  H  H453  1  0.26090000  0.19250000  0.36330000  1
  H  H454  1  0.48290000  0.59250000  0.96210000  1
  H  H455  1  0.96250000  0.09250000  0.46210000  1
  H  H456  1  0.62440000  0.48280000  0.06640000  1
  H  H457  1  0.82640000  0.98280000  0.56640000  1
  H  H458  1  0.45650000  0.37140000  0.16620000  1
  H  H459  1  0.00590000  0.87140000  0.66620000  1
  H  H460  1  0.65830000  0.64650000  0.88910000  1
  H  H461  1  0.80610000  0.14650000  0.38910000  1
  H  H462  1  0.58550000  0.53460000  0.99640000  1
  H  H463  1  0.88350000  0.03460000  0.49640000  1
  H  H464  1  0.38730000  0.66000000  0.86840000  1
  H  H465  1  0.08430000  0.16000000  0.36840000  1
  H  H466  1  0.85470000  0.53340000  0.99320000  1
  H  H467  1  0.61870000  0.03340000  0.49320000  1
  H  H468  1  0.30260000  0.70700000  0.81260000  1
  H  H469  1  0.17780000  0.20700000  0.31260000  1
  H  H470  1  0.88480000  0.30040000  0.21780000  1
  H  H471  1  0.59700000  0.80040000  0.71780000  1
  H  H472  1  0.11520000  0.69960000  0.78220000  1
  H  H473  1  0.40300000  0.19960000  0.28220000  1
  H  H474  1  0.69740000  0.29300000  0.18740000  1
  H  H475  1  0.82220000  0.79300000  0.68740000  1
  H  H476  1  0.14530000  0.46660000  0.00680000  1
  H  H477  1  0.38130000  0.96660000  0.50680000  1
  H  H478  1  0.61270000  0.34000000  0.13160000  1
  H  H479  1  0.91570000  0.84000000  0.63160000  1
  H  H480  1  0.41450000  0.46540000  0.00360000  1
  H  H481  1  0.11650000  0.96540000  0.50360000  1
  H  H482  1  0.34170000  0.35350000  0.11090000  1
  H  H483  1  0.19390000  0.85350000  0.61090000  1
  H  H484  1  0.54350000  0.62860000  0.83380000  1
  H  H485  1  0.99410000  0.12860000  0.33380000  1
  H  H486  1  0.37560000  0.51720000  0.93360000  1
  H  H487  1  0.17360000  0.01720000  0.43360000  1
  H  H488  1  0.51710000  0.40750000  0.03790000  1
  H  H489  1  0.03750000  0.90750000  0.53790000  1
  H  H490  1  0.81670000  0.30750000  0.13670000  1
  H  H491  1  0.73910000  0.80750000  0.63670000  1
  H  H492  1  0.72190000  0.35380000  0.07720000  1
  H  H493  1  0.84710000  0.85380000  0.57720000  1
  H  H494  1  0.10930000  0.44530000  0.97270000  1
  H  H495  1  0.47270000  0.94530000  0.47270000  1
  H  H496  1  0.68520000  0.21780000  0.19960000  1
  H  H497  1  0.89740000  0.71780000  0.69960000  1
  H  H498  1  0.11640000  0.54240000  0.87380000  1
  H  H499  1  0.46740000  0.04240000  0.37380000  1
  H  H500  1  0.50710000  0.61190000  0.79710000  1
  H  H501  1  0.08390000  0.11190000  0.29710000  1
  H  H502  1  0.12050000  0.49920000  0.90940000  1
  H  H503  1  0.47090000  0.99920000  0.40940000  1
  H  H504  1  0.19580000  0.33580000  0.07120000  1
  H  H505  1  0.39720000  0.83580000  0.57120000  1
  H  H506  1  0.73180000  0.58470000  0.81570000  1
  H  H507  1  0.86780000  0.08470000  0.31570000  1
  H  H508  1  0.61500000  0.55200000  0.84400000  1
  H  H509  1  0.98900000  0.05200000  0.34400000  1
  H  H510  1  0.11520000  0.68740000  0.70700000  1
  H  H511  1  0.49040000  0.18740000  0.20700000  1
  H  H512  1  0.46760000  0.33800000  0.05620000  1
  H  H513  1  0.13820000  0.83800000  0.55620000  1
  H  H514  1  0.47150000  0.52250000  0.85910000  1
  H  H515  1  0.14690000  0.02250000  0.35910000  1
  H  H516  1  0.26130000  0.52150000  0.84710000  1
  H  H517  1  0.37010000  0.02150000  0.34710000  1
  H  H518  1  0.26690000  0.47910000  0.88390000  1
  H  H519  1  0.37010000  0.97910000  0.38390000  1
  H  H520  1  0.01880000  0.40370000  0.95350000  1
  H  H521  1  0.62400000  0.90370000  0.45350000  1
  H  H522  1  0.98910000  0.59290000  0.75310000  1
  H  H523  1  0.66490000  0.09290000  0.25310000  1
  H  H524  1  0.84370000  0.58920000  0.75360000  1
  H  H525  1  0.81350000  0.08920000  0.25360000  1
  H  H526  1  0.57810000  0.53510000  0.80750000  1
  H  H527  1  0.07930000  0.03510000  0.30750000  1
  H  H528  1  0.91800000  0.24690000  0.09290000  1
  H  H529  1  0.74220000  0.74690000  0.59290000  1
  H  H530  1  0.31440000  0.27800000  0.05800000  1
  H  H531  1  0.34960000  0.77800000  0.55800000  1
  H  H532  1  0.06710000  0.24640000  0.08920000  1
  H  H533  1  0.59730000  0.74640000  0.58920000  1
  H  H534  1  0.04660000  0.63670000  0.69250000  1
  H  H535  1  0.62420000  0.13670000  0.19250000  1
  H  H536  1  0.22920000  0.47800000  0.84140000  1
  H  H537  1  0.45140000  0.97800000  0.34140000  1
  H  H538  1  0.38100000  0.20290000  0.11190000  1
  H  H539  1  0.30420000  0.70290000  0.61190000  1
  H  H540  1  0.11800000  0.41900000  0.88460000  1
  H  H541  1  0.57840000  0.91900000  0.38460000  1
  H  H542  1  0.98950000  0.37400000  0.92320000  1
  H  H543  1  0.71330000  0.87400000  0.42320000  1
  H  H544  1  0.32790000  0.16620000  0.12860000  1
  H  H545  1  0.37730000  0.66620000  0.62860000  1
  H  H546  1  0.25570000  0.63160000  0.66000000  1
  H  H547  1  0.45270000  0.13160000  0.16000000  1
  H  H548  1  0.62760000  0.55800000  0.72200000  1
  H  H549  1  0.09240000  0.05800000  0.22200000  1
  H  H550  1  0.18350000  0.18430000  0.08470000  1
  H  H551  1  0.54750000  0.68430000  0.58470000  1
  H  H552  1  0.08400000  0.46180000  0.80200000  1
  H  H553  1  0.65220000  0.96180000  0.30200000  1
  H  H554  1  0.01330000  0.50830000  0.75270000  1
  H  H555  1  0.72570000  0.00830000  0.25270000  1
  H  H556  1  0.54740000  0.61090000  0.64650000  1
  H  H557  1  0.19520000  0.11090000  0.14650000  1
  H  H558  1  0.13390000  0.36380000  0.89340000  1
  H  H559  1  0.60890000  0.86380000  0.39340000  1
  H  H560  1  0.97840000  0.24730000  0.00830000  1
  H  H561  1  0.76600000  0.74730000  0.50830000  1
  H  H562  1  0.08900000  0.38860000  0.85460000  1
  H  H563  1  0.66780000  0.88860000  0.35460000  1
  H  H564  1  0.73300000  0.57120000  0.66420000  1
  H  H565  1  0.03160000  0.07120000  0.16420000  1
  H  H566  1  0.38680000  0.19250000  0.03510000  1
  H  H567  1  0.38560000  0.69250000  0.53510000  1
  H  H568  1  0.79660000  0.30750000  0.91870000  1
  H  H569  1  0.97720000  0.80750000  0.41870000  1
  H  H570  1  0.20090000  0.57720000  0.64620000  1
  H  H571  1  0.57570000  0.07720000  0.14620000  1
  H  H572  1  0.47620000  0.55620000  0.66200000  1
  H  H573  1  0.30560000  0.05620000  0.16200000  1
  H  H574  1  0.33300000  0.15600000  0.05200000  1
  H  H575  1  0.45900000  0.65600000  0.55200000  1
  H  H576  1  0.21650000  0.41440000  0.77140000  1
  H  H577  1  0.59770000  0.91440000  0.27140000  1
  H  H578  1  0.71720000  0.15290000  0.02150000  1
  H  H579  1  0.10840000  0.65290000  0.52150000  1
  H  H580  1  0.84120000  0.12620000  0.04240000  1
  H  H581  1  0.99020000  0.62620000  0.54240000  1
  H  H582  1  0.50600000  0.14090000  0.02250000  1
  H  H583  1  0.33060000  0.64090000  0.52250000  1
  H  H584  1  0.95420000  0.19800000  0.96180000  1
  H  H585  1  0.88600000  0.69800000  0.46180000  1
  H  H586  1  0.86910000  0.22860000  0.91440000  1
  H  H587  1  0.98790000  0.72860000  0.41440000  1
  H  H588  1  0.79280000  0.15860000  0.97800000  1
  H  H589  1  0.07060000  0.65860000  0.47800000  1
  H  H590  1  0.44500000  0.53790000  0.59250000  1
  H  H591  1  0.42460000  0.03790000  0.09250000  1
  H  H592  1  0.28470000  0.41870000  0.69250000  1
  H  H593  1  0.60410000  0.91870000  0.19250000  1
  H  H594  1  0.75400000  0.11610000  0.97910000  1
  H  H595  1  0.15080000  0.61610000  0.47910000  1
  H  H596  1  0.88030000  0.09060000  0.99920000  1
  H  H597  1  0.02990000  0.59060000  0.49920000  1
  H  H598  1  0.60720000  0.06640000  0.01720000  1
  H  H599  1  0.30920000  0.56640000  0.51720000  1
  H  H600  1  0.02770000  0.45350000  0.59630000  1
  H  H601  1  0.92250000  0.95350000  0.09630000  1
  H  H602  1  0.08730000  0.42320000  0.62600000  1
  H  H603  1  0.86350000  0.92320000  0.12600000  1
  H  H604  1  0.84790000  0.50680000  0.53340000  1
  H  H605  1  0.11190000  0.00680000  0.03340000  1
  H  H606  1  0.58190000  0.50360000  0.53460000  1
  H  H607  1  0.37990000  0.00360000  0.03460000  1
  H  H608  1  0.96300000  0.11540000  0.91900000  1
  H  H609  1  0.00260000  0.61540000  0.41900000  1
  H  H610  1  0.02240000  0.14540000  0.88860000  1
  H  H611  1  0.94360000  0.64540000  0.38860000  1
  H  H612  1  0.97270000  0.39340000  0.63620000  1
  H  H613  1  0.99770000  0.89340000  0.13620000  1
  H  H614  1  0.91800000  0.47270000  0.55470000  1
  H  H615  1  0.05460000  0.97270000  0.05470000  1
  Mn  Mn616  1  0.79629000  0.49771000  0.42073000  1
  Mn  Mn617  1  0.28527000  0.99771000  0.92073000  1
  Mn  Mn618  1  0.90672000  0.87958000  0.97104000  1
  Mn  Mn619  1  0.24266000  0.37958000  0.47104000  1
  Mn  Mn620  1  0.08601000  0.41554000  0.35608000  1
  Mn  Mn621  1  0.14237000  0.91554000  0.85608000  1
  Mn  Mn622  1  0.12224000  0.47104000  0.12042000  1
  Mn  Mn623  1  0.28630000  0.97104000  0.62042000  1
  Mn  Mn624  1  0.20600000  0.57927000  0.99771000  1
  Mn  Mn625  1  0.21702000  0.07927000  0.49771000  1
  Mn  Mn626  1  0.99845000  0.64392000  0.91554000  1
  Mn  Mn627  1  0.44209000  0.14392000  0.41554000  1
  Mn  Mn628  1  0.00155000  0.35608000  0.08446000  1
  Mn  Mn629  1  0.55791000  0.85608000  0.58446000  1
  Mn  Mn630  1  0.79400000  0.42073000  0.00229000  1
  Mn  Mn631  1  0.78298000  0.92073000  0.50229000  1
  Mn  Mn632  1  0.87776000  0.52896000  0.87958000  1
  Mn  Mn633  1  0.71370000  0.02896000  0.37958000  1
  Mn  Mn634  1  0.91399000  0.58446000  0.64392000  1
  Mn  Mn635  1  0.85763000  0.08446000  0.14392000  1
  Mn  Mn636  1  0.09328000  0.12042000  0.02896000  1
  Mn  Mn637  1  0.75734000  0.62042000  0.52896000  1
  Mn  Mn638  1  0.20371000  0.50229000  0.57927000  1
  Mn  Mn639  1  0.71473000  0.00229000  0.07927000  1
  N  N640  1  0.82124000  0.93941000  0.04955000  1
  N  N641  1  0.18980000  0.43941000  0.54955000  1
  N  N642  1  0.81330000  0.92779000  0.00601000  1
  N  N643  1  0.25290000  0.42779000  0.50601000  1
  N  N644  1  0.74268000  0.43941000  0.41243000  1
  N  N645  1  0.40548000  0.93941000  0.91243000  1
  N  N646  1  0.90481000  0.46716000  0.38058000  1
  N  N647  1  0.24745000  0.96716000  0.88058000  1
  N  N648  1  0.99141000  0.91935000  0.92723000  1
  N  N649  1  0.16201000  0.41935000  0.42723000  1
  N  N650  1  0.95523000  0.43265000  0.40309000  1
  N  N651  1  0.20903000  0.93265000  0.90309000  1
  N  N652  1  0.06427000  0.88691000  0.89915000  1
  N  N653  1  0.14967000  0.38691000  0.39915000  1
  N  N654  1  0.19947000  0.41949000  0.29677000  1
  N  N655  1  0.08427000  0.91949000  0.79677000  1
  N  N656  1  0.88104000  0.70323000  0.91949000  1
  N  N657  1  0.49624000  0.20323000  0.41949000  1
  N  N658  1  0.12921000  0.54955000  0.06059000  1
  N  N659  1  0.26065000  0.04955000  0.56059000  1
  N  N660  1  0.12803000  0.61942000  0.96716000  1
  N  N661  1  0.28539000  0.11942000  0.46716000  1
  N  N662  1  0.18069000  0.50601000  0.07221000  1
  N  N663  1  0.24109000  0.00601000  0.57221000  1
  N  N664  1  0.11212000  0.59691000  0.93265000  1
  N  N665  1  0.35832000  0.09691000  0.43265000  1
  N  N666  1  0.31791000  0.58757000  0.93941000  1
  N  N667  1  0.15511000  0.08757000  0.43941000  1
  N  N668  1  0.03658000  0.39915000  0.11309000  1
  N  N669  1  0.45118000  0.89915000  0.61309000  1
  N  N670  1  0.08136000  0.42723000  0.08065000  1
  N  N671  1  0.41076000  0.92723000  0.58065000  1
  N  N672  1  0.91864000  0.57277000  0.91935000  1
  N  N673  1  0.58924000  0.07277000  0.41935000  1
  N  N674  1  0.96342000  0.60085000  0.88691000  1
  N  N675  1  0.54882000  0.10085000  0.38691000  1
  N  N676  1  0.68209000  0.41243000  0.06059000  1
  N  N677  1  0.84489000  0.91243000  0.56059000  1
  N  N678  1  0.88788000  0.40309000  0.06735000  1
  N  N679  1  0.64168000  0.90309000  0.56735000  1
  N  N680  1  0.81931000  0.49399000  0.92779000  1
  N  N681  1  0.75891000  0.99399000  0.42779000  1
  N  N682  1  0.87197000  0.38058000  0.03284000  1
  N  N683  1  0.71461000  0.88058000  0.53284000  1
  N  N684  1  0.87079000  0.45045000  0.93941000  1
  N  N685  1  0.73935000  0.95045000  0.43941000  1
  N  N686  1  0.11896000  0.29677000  0.08051000  1
  N  N687  1  0.50376000  0.79677000  0.58051000  1
  N  N688  1  0.80053000  0.58051000  0.70323000  1
  N  N689  1  0.91573000  0.08051000  0.20323000  1
  N  N690  1  0.93573000  0.11309000  0.10085000  1
  N  N691  1  0.85033000  0.61309000  0.60085000  1
  N  N692  1  0.04477000  0.56735000  0.59691000  1
  N  N693  1  0.79097000  0.06735000  0.09691000  1
  N  N694  1  0.00859000  0.08065000  0.07277000  1
  N  N695  1  0.83799000  0.58065000  0.57277000  1
  N  N696  1  0.09519000  0.53284000  0.61942000  1
  N  N697  1  0.75255000  0.03284000  0.11942000  1
  N  N698  1  0.25732000  0.56059000  0.58757000  1
  N  N699  1  0.59452000  0.06059000  0.08757000  1
  N  N700  1  0.18670000  0.07221000  0.99399000  1
  N  N701  1  0.74710000  0.57221000  0.49399000  1
  N  N702  1  0.17876000  0.06059000  0.95045000  1
  N  N703  1  0.81020000  0.56059000  0.45045000  1
  O  O704  1  0.69191000  0.52161000  0.47023000  1
  O  O705  1  0.31625000  0.02161000  0.97023000  1
  O  O706  1  0.23350000  0.95718000  0.96564000  1
  O  O707  1  0.84368000  0.45718000  0.46564000  1
  O  O708  1  0.94476000  0.88363000  0.02499000  1
  O  O709  1  0.14662000  0.38363000  0.52499000  1
  O  O710  1  0.76595000  0.53197000  0.37067000  1
  O  O711  1  0.33141000  0.03197000  0.87067000  1
  O  O712  1  0.09247000  0.47107000  0.38197000  1
  O  O713  1  0.05449000  0.97107000  0.88197000  1
  O  O714  1  0.85471000  0.88341000  0.92397000  1
  O  O715  1  0.33791000  0.38341000  0.42397000  1
  O  O716  1  0.00484000  0.83108000  0.93708000  1
  O  O717  1  0.22700000  0.33108000  0.43708000  1
  O  O718  1  0.01713000  0.45152000  0.31610000  1
  O  O719  1  0.21525000  0.95152000  0.81610000  1
  O  O720  1  0.08898000  0.35765000  0.33829000  1
  O  O721  1  0.21508000  0.85765000  0.83829000  1
  O  O722  1  0.20208000  0.62933000  0.03197000  1
  O  O723  1  0.13662000  0.12933000  0.53197000  1
  O  O724  1  0.03025000  0.52499000  0.11637000  1
  O  O725  1  0.32839000  0.02499000  0.61637000  1
  O  O726  1  0.03135000  0.68390000  0.95152000  1
  O  O727  1  0.33323000  0.18390000  0.45152000  1
  O  O728  1  0.05808000  0.43708000  0.16892000  1
  O  O729  1  0.33592000  0.93708000  0.66892000  1
  O  O730  1  0.93646000  0.61803000  0.97107000  1
  O  O731  1  0.47444000  0.11803000  0.47107000  1
  O  O732  1  0.28648000  0.52977000  0.02161000  1
  O  O733  1  0.16214000  0.02977000  0.52161000  1
  O  O734  1  0.22132000  0.42397000  0.11659000  1
  O  O735  1  0.23812000  0.92397000  0.61659000  1
  O  O736  1  0.05337000  0.66171000  0.85765000  1
  O  O737  1  0.42727000  0.16171000  0.35765000  1
  O  O738  1  0.80086000  0.46564000  0.04282000  1
  O  O739  1  0.69068000  0.96564000  0.54282000  1
  O  O740  1  0.19914000  0.53436000  0.95718000  1
  O  O741  1  0.30932000  0.03436000  0.45718000  1
  O  O742  1  0.94663000  0.33829000  0.14235000  1
  O  O743  1  0.57273000  0.83829000  0.64235000  1
  O  O744  1  0.77868000  0.57603000  0.88341000  1
  O  O745  1  0.76188000  0.07603000  0.38341000  1
  O  O746  1  0.71352000  0.47023000  0.97839000  1
  O  O747  1  0.83786000  0.97023000  0.47839000  1
  O  O748  1  0.06354000  0.38197000  0.02893000  1
  O  O749  1  0.52556000  0.88197000  0.52893000  1
  O  O750  1  0.94192000  0.56292000  0.83108000  1
  O  O751  1  0.66408000  0.06292000  0.33108000  1
  O  O752  1  0.96865000  0.31610000  0.04848000  1
  O  O753  1  0.66677000  0.81610000  0.54848000  1
  O  O754  1  0.96975000  0.47501000  0.88363000  1
  O  O755  1  0.67161000  0.97501000  0.38363000  1
  O  O756  1  0.79792000  0.37067000  0.96803000  1
  O  O757  1  0.86338000  0.87067000  0.46803000  1
  O  O758  1  0.91102000  0.64235000  0.66171000  1
  O  O759  1  0.78492000  0.14235000  0.16171000  1
  O  O760  1  0.98287000  0.54848000  0.68390000  1
  O  O761  1  0.78475000  0.04848000  0.18390000  1
  O  O762  1  0.99516000  0.16892000  0.06292000  1
  O  O763  1  0.77300000  0.66892000  0.56292000  1
  O  O764  1  0.14529000  0.11659000  0.07603000  1
  O  O765  1  0.66209000  0.61659000  0.57603000  1
  O  O766  1  0.90753000  0.52893000  0.61803000  1
  O  O767  1  0.94551000  0.02893000  0.11803000  1
  O  O768  1  0.23405000  0.46803000  0.62933000  1
  O  O769  1  0.66859000  0.96803000  0.12933000  1
  O  O770  1  0.05524000  0.11637000  0.97501000  1
  O  O771  1  0.85338000  0.61637000  0.47501000  1
  O  O772  1  0.76650000  0.04282000  0.03436000  1
  O  O773  1  0.15632000  0.54282000  0.53436000  1
  O  O774  1  0.30809000  0.47839000  0.52977000  1
  O  O775  1  0.68375000  0.97839000  0.02977000  1
