# generated using pymatgen
data_ZnH24C30(NO2)2
_symmetry_space_group_name_H-M   'P 1'
_cell_length_a   5.86530000
_cell_length_b   12.85350000
_cell_length_c   20.98000000
_cell_angle_alpha   92.31720000
_cell_angle_beta   90.00000000
_cell_angle_gamma   103.18900000
_symmetry_Int_Tables_number   1
_chemical_formula_structural   ZnH24C30(NO2)2
_chemical_formula_sum   'Zn2 H48 C60 N4 O8'
_cell_volume   1538.62584889
_cell_formula_units_Z   2
loop_
 _symmetry_equiv_pos_site_id
 _symmetry_equiv_pos_as_xyz
  1  'x, y, z'
loop_
 _atom_site_type_symbol
 _atom_site_label
 _atom_site_symmetry_multiplicity
 _atom_site_fract_x
 _atom_site_fract_y
 _atom_site_fract_z
 _atom_site_occupancy
  Zn  Zn0  1  0.28245000  0.00000000  0.25000000  1
  Zn  Zn1  1  0.71755000  0.00000000  0.75000000  1
  H  H2  1  0.00670000  0.21920000  0.94590000  1
  H  H3  1  0.07160000  0.67660000  0.52930000  1
  H  H4  1  0.09660000  0.46360000  0.89540000  1
  H  H5  1  0.09820000  0.88200000  0.75370000  1
  H  H6  1  0.14630000  0.87740000  0.48340000  1
  H  H7  1  0.16180000  0.98700000  0.93930000  1
  H  H8  1  0.17480000  0.01300000  0.56070000  1
  H  H9  1  0.19750000  0.57080000  0.46210000  1
  H  H10  1  0.20990000  0.82200000  0.88730000  1
  H  H11  1  0.21250000  0.21920000  0.44590000  1
  H  H12  1  0.21620000  0.11800000  0.74630000  1
  H  H13  1  0.25200000  0.89800000  0.11860000  1
  H  H14  1  0.26340000  0.76920000  0.69110000  1
  H  H15  1  0.26890000  0.12260000  0.01660000  1
  H  H16  1  0.28780000  0.64420000  0.12820000  1
  H  H17  1  0.35400000  0.10200000  0.38140000  1
  H  H18  1  0.35640000  0.64420000  0.62820000  1
  H  H19  1  0.36700000  0.46360000  0.39540000  1
  H  H20  1  0.36870000  0.76260000  0.41620000  1
  H  H21  1  0.37330000  0.57080000  0.96210000  1
  H  H22  1  0.38790000  0.17800000  0.61270000  1
  H  H23  1  0.39390000  0.76260000  0.91620000  1
  H  H24  1  0.39500000  0.32340000  0.97070000  1
  H  H25  1  0.49420000  0.23080000  0.80890000  1
  H  H26  1  0.50580000  0.76920000  0.19110000  1
  H  H27  1  0.60500000  0.67660000  0.02930000  1
  H  H28  1  0.60610000  0.23740000  0.08380000  1
  H  H29  1  0.61210000  0.82200000  0.38730000  1
  H  H30  1  0.62670000  0.42920000  0.03790000  1
  H  H31  1  0.63130000  0.23740000  0.58380000  1
  H  H32  1  0.63300000  0.53640000  0.60460000  1
  H  H33  1  0.64360000  0.35580000  0.37180000  1
  H  H34  1  0.64600000  0.89800000  0.61860000  1
  H  H35  1  0.71220000  0.35580000  0.87180000  1
  H  H36  1  0.73110000  0.87740000  0.98340000  1
  H  H37  1  0.73660000  0.23080000  0.30890000  1
  H  H38  1  0.74800000  0.10200000  0.88140000  1
  H  H39  1  0.78380000  0.88200000  0.25370000  1
  H  H40  1  0.78750000  0.78080000  0.55410000  1
  H  H41  1  0.79010000  0.17800000  0.11270000  1
  H  H42  1  0.80250000  0.42920000  0.53790000  1
  H  H43  1  0.82520000  0.98700000  0.43930000  1
  H  H44  1  0.83820000  0.01300000  0.06070000  1
  H  H45  1  0.85370000  0.12260000  0.51660000  1
  H  H46  1  0.90180000  0.11800000  0.24630000  1
  H  H47  1  0.90340000  0.53640000  0.10460000  1
  H  H48  1  0.92840000  0.32340000  0.47070000  1
  H  H49  1  0.99330000  0.78080000  0.05410000  1
  C  C50  1  0.03672000  0.86164000  0.71250000  1
  C  C51  1  0.04184000  0.75948000  0.61430000  1
  C  C52  1  0.05457000  0.19914000  0.90530000  1
  C  C53  1  0.05661000  0.47802000  0.93780000  1
  C  C54  1  0.10004000  0.87028000  0.13357000  1
  C  C55  1  0.13345000  0.68750000  0.57100000  1
  C  C56  1  0.13498000  0.79336000  0.67560000  1
  C  C57  1  0.14457000  0.19914000  0.40530000  1
  C  C58  1  0.16878000  0.56596000  0.04110000  1
  C  C59  1  0.17508000  0.13836000  0.78750000  1
  C  C60  1  0.22247000  0.54234000  0.97760000  1
  C  C61  1  0.22976000  0.12972000  0.36643000  1
  C  C62  1  0.28236000  0.24052000  0.88570000  1
  C  C63  1  0.28982000  0.92704000  0.49000000  1
  C  C64  1  0.29860000  0.99200000  0.96370000  1
  C  C65  1  0.29876000  0.63572000  0.58610000  1
  C  C66  1  0.30660000  0.00800000  0.53630000  1
  C  C67  1  0.31987000  0.54234000  0.47760000  1
  C  C68  1  0.32866000  0.86472000  0.34510000  1
  C  C69  1  0.33696000  0.63572000  0.08610000  1
  C  C70  1  0.34162000  0.20664000  0.82440000  1
  C  C71  1  0.36278000  0.07296000  0.01000000  1
  C  C72  1  0.37339000  0.83078000  0.90080000  1
  C  C73  1  0.39718000  0.56596000  0.54110000  1
  C  C74  1  0.42141000  0.47802000  0.43780000  1
  C  C75  1  0.43545000  0.91750000  0.95292000  1
  C  C76  1  0.44595000  0.31250000  0.92900000  1
  C  C77  1  0.45739000  0.83078000  0.40080000  1
  C  C78  1  0.46394000  0.13528000  0.15490000  1
  C  C79  1  0.48205000  0.91750000  0.45292000  1
  C  C80  1  0.51795000  0.08250000  0.54708000  1
  C  C81  1  0.53606000  0.86472000  0.84510000  1
  C  C82  1  0.54261000  0.16922000  0.59920000  1
  C  C83  1  0.55405000  0.68750000  0.07100000  1
  C  C84  1  0.56455000  0.08250000  0.04708000  1
  C  C85  1  0.57859000  0.52198000  0.56220000  1
  C  C86  1  0.60282000  0.43404000  0.45890000  1
  C  C87  1  0.62661000  0.16922000  0.09920000  1
  C  C88  1  0.63722000  0.92704000  0.99000000  1
  C  C89  1  0.65838000  0.79336000  0.17560000  1
  C  C90  1  0.66304000  0.36428000  0.91390000  1
  C  C91  1  0.67134000  0.13528000  0.65490000  1
  C  C92  1  0.68013000  0.45766000  0.52240000  1
  C  C93  1  0.69340000  0.99200000  0.46370000  1
  C  C94  1  0.70124000  0.36428000  0.41390000  1
  C  C95  1  0.70140000  0.00800000  0.03630000  1
  C  C96  1  0.71018000  0.07296000  0.51000000  1
  C  C97  1  0.71764000  0.75948000  0.11430000  1
  C  C98  1  0.77024000  0.87028000  0.63357000  1
  C  C99  1  0.77753000  0.45766000  0.02240000  1
  C  C100  1  0.82492000  0.86164000  0.21250000  1
  C  C101  1  0.83122000  0.43404000  0.95890000  1
  C  C102  1  0.85543000  0.80086000  0.59470000  1
  C  C103  1  0.86502000  0.20664000  0.32440000  1
  C  C104  1  0.86655000  0.31250000  0.42900000  1
  C  C105  1  0.89996000  0.12972000  0.86643000  1
  C  C106  1  0.94339000  0.52198000  0.06220000  1
  C  C107  1  0.94543000  0.80086000  0.09470000  1
  C  C108  1  0.95816000  0.24052000  0.38570000  1
  C  C109  1  0.96328000  0.13836000  0.28750000  1
  N  N110  1  0.04401000  0.90082000  0.19264000  1
  N  N111  1  0.14319000  0.09918000  0.30736000  1
  N  N112  1  0.85681000  0.90082000  0.69264000  1
  N  N113  1  0.95599000  0.09918000  0.80736000  1
  O  O114  1  0.11359000  0.83418000  0.33950000  1
  O  O115  1  0.27941000  0.16582000  0.16050000  1
  O  O116  1  0.45345000  0.93170000  0.30859000  1
  O  O117  1  0.47825000  0.93170000  0.80859000  1
  O  O118  1  0.52175000  0.06830000  0.19141000  1
  O  O119  1  0.54655000  0.06830000  0.69141000  1
  O  O120  1  0.72059000  0.83418000  0.83950000  1
  O  O121  1  0.88641000  0.16582000  0.66050000  1
