# generated using pymatgen
data_CuH4C11NO6
_symmetry_space_group_name_H-M   'P 1'
_cell_length_a   10.17630000
_cell_length_b   11.15980000
_cell_length_c   14.85570000
_cell_angle_alpha   90.00000000
_cell_angle_beta   107.03500000
_cell_angle_gamma   90.00000000
_symmetry_Int_Tables_number   1
_chemical_formula_structural   CuH4C11NO6
_chemical_formula_sum   'Cu4 H16 C44 N4 O24'
_cell_volume   1613.07496780
_cell_formula_units_Z   4
loop_
 _symmetry_equiv_pos_site_id
 _symmetry_equiv_pos_as_xyz
  1  'x, y, z'
loop_
 _atom_site_type_symbol
 _atom_site_label
 _atom_site_symmetry_multiplicity
 _atom_site_fract_x
 _atom_site_fract_y
 _atom_site_fract_z
 _atom_site_occupancy
  Cu  Cu0  1  0.03066000  0.25026000  0.00000000  1
  Cu  Cu1  1  0.03066000  0.74974000  0.50000000  1
  Cu  Cu2  1  0.96934000  0.25026000  0.50000000  1
  Cu  Cu3  1  0.96934000  0.74974000  0.00000000  1
  H  H4  1  0.14470000  0.48720000  0.04120000  1
  H  H5  1  0.14470000  0.51280000  0.54120000  1
  H  H6  1  0.32570000  0.40050000  0.53090000  1
  H  H7  1  0.32570000  0.59950000  0.03090000  1
  H  H8  1  0.32590000  0.19280000  0.99960000  1
  H  H9  1  0.32590000  0.80720000  0.49960000  1
  H  H10  1  0.48530000  0.29840000  0.50780000  1
  H  H11  1  0.48530000  0.70160000  0.00780000  1
  H  H12  1  0.51470000  0.29840000  0.99220000  1
  H  H13  1  0.51470000  0.70160000  0.49220000  1
  H  H14  1  0.67410000  0.19280000  0.50040000  1
  H  H15  1  0.67410000  0.80720000  0.00040000  1
  H  H16  1  0.67430000  0.40050000  0.96910000  1
  H  H17  1  0.67430000  0.59950000  0.46910000  1
  H  H18  1  0.85530000  0.48720000  0.45880000  1
  H  H19  1  0.85530000  0.51280000  0.95880000  1
  C  C20  1  0.03690000  0.22800000  0.29850000  1
  C  C21  1  0.03690000  0.77200000  0.79850000  1
  C  C22  1  0.04220000  0.01190000  0.29670000  1
  C  C23  1  0.04220000  0.98810000  0.79670000  1
  C  C24  1  0.06680000  0.34810000  0.34880000  1
  C  C25  1  0.06680000  0.65190000  0.84880000  1
  C  C26  1  0.07990000  0.11990000  0.34460000  1
  C  C27  1  0.07990000  0.88010000  0.84460000  1
  C  C28  1  0.08760000  0.10570000  0.84700000  1
  C  C29  1  0.08760000  0.89430000  0.34700000  1
  C  C30  1  0.18070000  0.11900000  0.44360000  1
  C  C31  1  0.18070000  0.88100000  0.94360000  1
  C  C32  1  0.21880000  0.44880000  0.02910000  1
  C  C33  1  0.21880000  0.55120000  0.52910000  1
  C  C34  1  0.32530000  0.27580000  0.00520000  1
  C  C35  1  0.32530000  0.72420000  0.50520000  1
  C  C36  1  0.32790000  0.48320000  0.52330000  1
  C  C37  1  0.32790000  0.51680000  0.02330000  1
  C  C38  1  0.43910000  0.33920000  0.00000000  1
  C  C39  1  0.43910000  0.66080000  0.50000000  1
  C  C40  1  0.44160000  0.46420000  0.00630000  1
  C  C41  1  0.44160000  0.53580000  0.50630000  1
  C  C42  1  0.55840000  0.46420000  0.49370000  1
  C  C43  1  0.55840000  0.53580000  0.99370000  1
  C  C44  1  0.56090000  0.33920000  0.50000000  1
  C  C45  1  0.56090000  0.66080000  0.00000000  1
  C  C46  1  0.67210000  0.48320000  0.97670000  1
  C  C47  1  0.67210000  0.51680000  0.47670000  1
  C  C48  1  0.67470000  0.27580000  0.49480000  1
  C  C49  1  0.67470000  0.72420000  0.99480000  1
  C  C50  1  0.78120000  0.44880000  0.47090000  1
  C  C51  1  0.78120000  0.55120000  0.97090000  1
  C  C52  1  0.81930000  0.11900000  0.05640000  1
  C  C53  1  0.81930000  0.88100000  0.55640000  1
  C  C54  1  0.91240000  0.10570000  0.65300000  1
  C  C55  1  0.91240000  0.89430000  0.15300000  1
  C  C56  1  0.92010000  0.11990000  0.15540000  1
  C  C57  1  0.92010000  0.88010000  0.65540000  1
  C  C58  1  0.93320000  0.34810000  0.15120000  1
  C  C59  1  0.93320000  0.65190000  0.65120000  1
  C  C60  1  0.95780000  0.01190000  0.20330000  1
  C  C61  1  0.95780000  0.98810000  0.70330000  1
  C  C62  1  0.96310000  0.22800000  0.20150000  1
  C  C63  1  0.96310000  0.77200000  0.70150000  1
  N  N64  1  0.21340000  0.32910000  0.01810000  1
  N  N65  1  0.21340000  0.67090000  0.51810000  1
  N  N66  1  0.78660000  0.32910000  0.48190000  1
  N  N67  1  0.78660000  0.67090000  0.98190000  1
  O  O68  1  0.01250000  0.36550000  0.41560000  1
  O  O69  1  0.01250000  0.63450000  0.91560000  1
  O  O70  1  0.05990000  0.11560000  0.92440000  1
  O  O71  1  0.05990000  0.88440000  0.42440000  1
  O  O72  1  0.13290000  0.42350000  0.32130000  1
  O  O73  1  0.13290000  0.57650000  0.82130000  1
  O  O74  1  0.14430000  0.18160000  0.80950000  1
  O  O75  1  0.14430000  0.81840000  0.30950000  1
  O  O76  1  0.14910000  0.17220000  0.50860000  1
  O  O77  1  0.14910000  0.82780000  0.00860000  1
  O  O78  1  0.29300000  0.06760000  0.45370000  1
  O  O79  1  0.29300000  0.93240000  0.95370000  1
  O  O80  1  0.70700000  0.06760000  0.04630000  1
  O  O81  1  0.70700000  0.93240000  0.54630000  1
  O  O82  1  0.85090000  0.17220000  0.99140000  1
  O  O83  1  0.85090000  0.82780000  0.49140000  1
  O  O84  1  0.85570000  0.18160000  0.69050000  1
  O  O85  1  0.85570000  0.81840000  0.19050000  1
  O  O86  1  0.86710000  0.42350000  0.17870000  1
  O  O87  1  0.86710000  0.57650000  0.67870000  1
  O  O88  1  0.94010000  0.11560000  0.57560000  1
  O  O89  1  0.94010000  0.88440000  0.07560000  1
  O  O90  1  0.98750000  0.36550000  0.08440000  1
  O  O91  1  0.98750000  0.63450000  0.58440000  1
