# generated using pymatgen
data_FeH24C27S2(N3O2)2
_symmetry_space_group_name_H-M   'P 1'
_cell_length_a   8.98460000
_cell_length_b   12.32590000
_cell_length_c   24.02290000
_cell_angle_alpha   90.00000000
_cell_angle_beta   90.00000000
_cell_angle_gamma   111.37400000
_symmetry_Int_Tables_number   1
_chemical_formula_structural   FeH24C27S2(N3O2)2
_chemical_formula_sum   'Fe2 H48 C54 S4 N12 O8'
_cell_volume   2477.39763931
_cell_formula_units_Z   2
loop_
 _symmetry_equiv_pos_site_id
 _symmetry_equiv_pos_as_xyz
  1  'x, y, z'
loop_
 _atom_site_type_symbol
 _atom_site_label
 _atom_site_symmetry_multiplicity
 _atom_site_fract_x
 _atom_site_fract_y
 _atom_site_fract_z
 _atom_site_occupancy
  Fe  Fe0  1  0.00000000  0.50000000  0.00000000  1
  Fe  Fe1  1  0.50000000  0.50000000  0.50000000  1
  H  H2  1  0.00030000  0.73040000  0.38660000  1
  H  H3  1  0.00030000  0.73040000  0.61340000  1
  H  H4  1  0.10110000  0.87500000  0.23710000  1
  H  H5  1  0.10110000  0.87500000  0.76290000  1
  H  H6  1  0.15050000  0.97200000  0.19070000  1
  H  H7  1  0.15050000  0.97200000  0.80930000  1
  H  H8  1  0.15650000  0.40180000  0.44880000  1
  H  H9  1  0.15650000  0.40180000  0.55120000  1
  H  H10  1  0.17850000  0.02800000  0.30930000  1
  H  H11  1  0.17850000  0.02800000  0.69070000  1
  H  H12  1  0.18070000  0.79240000  0.16200000  1
  H  H13  1  0.18070000  0.79240000  0.83800000  1
  H  H14  1  0.18880000  0.65760000  0.09800000  1
  H  H15  1  0.18880000  0.65760000  0.90200000  1
  H  H16  1  0.22610000  0.12500000  0.26290000  1
  H  H17  1  0.22610000  0.12500000  0.73710000  1
  H  H18  1  0.24530000  0.40180000  0.05120000  1
  H  H19  1  0.24530000  0.40180000  0.94880000  1
  H  H20  1  0.26990000  0.26960000  0.11340000  1
  H  H21  1  0.26990000  0.26960000  0.88660000  1
  H  H22  1  0.38830000  0.20760000  0.33800000  1
  H  H23  1  0.38830000  0.20760000  0.66200000  1
  H  H24  1  0.46880000  0.65760000  0.40200000  1
  H  H25  1  0.46880000  0.65760000  0.59800000  1
  H  H26  1  0.53120000  0.34240000  0.40200000  1
  H  H27  1  0.53120000  0.34240000  0.59800000  1
  H  H28  1  0.61170000  0.79240000  0.33800000  1
  H  H29  1  0.61170000  0.79240000  0.66200000  1
  H  H30  1  0.73010000  0.73040000  0.11340000  1
  H  H31  1  0.73010000  0.73040000  0.88660000  1
  H  H32  1  0.75470000  0.59820000  0.05120000  1
  H  H33  1  0.75470000  0.59820000  0.94880000  1
  H  H34  1  0.77390000  0.87500000  0.26290000  1
  H  H35  1  0.77390000  0.87500000  0.73710000  1
  H  H36  1  0.81120000  0.34240000  0.09800000  1
  H  H37  1  0.81120000  0.34240000  0.90200000  1
  H  H38  1  0.81930000  0.20760000  0.16200000  1
  H  H39  1  0.81930000  0.20760000  0.83800000  1
  H  H40  1  0.82150000  0.97200000  0.30930000  1
  H  H41  1  0.82150000  0.97200000  0.69070000  1
  H  H42  1  0.84350000  0.59820000  0.44880000  1
  H  H43  1  0.84350000  0.59820000  0.55120000  1
  H  H44  1  0.84950000  0.02800000  0.19070000  1
  H  H45  1  0.84950000  0.02800000  0.80930000  1
  H  H46  1  0.89890000  0.12500000  0.23710000  1
  H  H47  1  0.89890000  0.12500000  0.76290000  1
  H  H48  1  0.99970000  0.26960000  0.38660000  1
  H  H49  1  0.99970000  0.26960000  0.61340000  1
  C  C50  1  0.00000000  0.00000000  0.25000000  1
  C  C51  1  0.00000000  0.00000000  0.75000000  1
  C  C52  1  0.04638000  0.22316000  0.14485000  1
  C  C53  1  0.04638000  0.22316000  0.85515000  1
  C  C54  1  0.06320000  0.92400000  0.21395000  1
  C  C55  1  0.06320000  0.92400000  0.78605000  1
  C  C56  1  0.09219000  0.75418000  0.13975000  1
  C  C57  1  0.09219000  0.75418000  0.86025000  1
  C  C58  1  0.09559000  0.67358000  0.10086000  1
  C  C59  1  0.09559000  0.67358000  0.89914000  1
  C  C60  1  0.10828000  0.28276000  0.38916000  1
  C  C61  1  0.10828000  0.28276000  0.61084000  1
  C  C62  1  0.13920000  0.07600000  0.28605000  1
  C  C63  1  0.13920000  0.07600000  0.71395000  1
  C  C64  1  0.15792000  0.36144000  0.07340000  1
  C  C65  1  0.15792000  0.36144000  0.92660000  1
  C  C66  1  0.17448000  0.28276000  0.11084000  1
  C  C67  1  0.17448000  0.28276000  0.88916000  1
  C  C68  1  0.17678000  0.22316000  0.35515000  1
  C  C69  1  0.17678000  0.22316000  0.64485000  1
  C  C70  1  0.20352000  0.36144000  0.42660000  1
  C  C71  1  0.20352000  0.36144000  0.57340000  1
  C  C72  1  0.28053000  0.65846000  0.50000000  1
  C  C73  1  0.33801000  0.24582000  0.36025000  1
  C  C74  1  0.33801000  0.24582000  0.63975000  1
  C  C75  1  0.37793000  0.65846000  0.00000000  1
  C  C76  1  0.42201000  0.32642000  0.39914000  1
  C  C77  1  0.42201000  0.32642000  0.60086000  1
  C  C78  1  0.57799000  0.67358000  0.39914000  1
  C  C79  1  0.57799000  0.67358000  0.60086000  1
  C  C80  1  0.62207000  0.34154000  0.00000000  1
  C  C81  1  0.66199000  0.75418000  0.36025000  1
  C  C82  1  0.66199000  0.75418000  0.63975000  1
  C  C83  1  0.71947000  0.34154000  0.50000000  1
  C  C84  1  0.79648000  0.63856000  0.42660000  1
  C  C85  1  0.79648000  0.63856000  0.57340000  1
  C  C86  1  0.82322000  0.77684000  0.35515000  1
  C  C87  1  0.82322000  0.77684000  0.64485000  1
  C  C88  1  0.82552000  0.71724000  0.11084000  1
  C  C89  1  0.82552000  0.71724000  0.88916000  1
  C  C90  1  0.84208000  0.63856000  0.07340000  1
  C  C91  1  0.84208000  0.63856000  0.92660000  1
  C  C92  1  0.86080000  0.92400000  0.28605000  1
  C  C93  1  0.86080000  0.92400000  0.71395000  1
  C  C94  1  0.89172000  0.71724000  0.38916000  1
  C  C95  1  0.89172000  0.71724000  0.61084000  1
  C  C96  1  0.90441000  0.32642000  0.10086000  1
  C  C97  1  0.90441000  0.32642000  0.89914000  1
  C  C98  1  0.90781000  0.24582000  0.13975000  1
  C  C99  1  0.90781000  0.24582000  0.86025000  1
  C  C100  1  0.93680000  0.07600000  0.21395000  1
  C  C101  1  0.93680000  0.07600000  0.78605000  1
  C  C102  1  0.95362000  0.77684000  0.14485000  1
  C  C103  1  0.95362000  0.77684000  0.85515000  1
  S  S104  1  0.19847000  0.75690000  0.50000000  1
  S  S105  1  0.44157000  0.24310000  0.00000000  1
  S  S106  1  0.55843000  0.75690000  0.00000000  1
  S  S107  1  0.80153000  0.24310000  0.50000000  1
  N  N108  1  0.02516000  0.38372000  0.06677000  1
  N  N109  1  0.02516000  0.38372000  0.93323000  1
  N  N110  1  0.25074000  0.59008000  0.00000000  1
  N  N111  1  0.33934000  0.59008000  0.50000000  1
  N  N112  1  0.35856000  0.38372000  0.43323000  1
  N  N113  1  0.35856000  0.38372000  0.56677000  1
  N  N114  1  0.64144000  0.61628000  0.43323000  1
  N  N115  1  0.64144000  0.61628000  0.56677000  1
  N  N116  1  0.66066000  0.40992000  0.50000000  1
  N  N117  1  0.74926000  0.40992000  0.00000000  1
  N  N118  1  0.97484000  0.61628000  0.06677000  1
  N  N119  1  0.97484000  0.61628000  0.93323000  1
  O  O120  1  0.06891000  0.14562000  0.18039000  1
  O  O121  1  0.06891000  0.14562000  0.81961000  1
  O  O122  1  0.07671000  0.14562000  0.31961000  1
  O  O123  1  0.07671000  0.14562000  0.68039000  1
  O  O124  1  0.92329000  0.85438000  0.31961000  1
  O  O125  1  0.92329000  0.85438000  0.68039000  1
  O  O126  1  0.93109000  0.85438000  0.18039000  1
  O  O127  1  0.93109000  0.85438000  0.81961000  1
