# generated using pymatgen
data_Co3H37C32(NO3)4
_symmetry_space_group_name_H-M   'P 1'
_cell_length_a   12.07510000
_cell_length_b   18.97050000
_cell_length_c   19.47830000
_cell_angle_alpha   90.00000000
_cell_angle_beta   90.00000000
_cell_angle_gamma   90.00000000
_symmetry_Int_Tables_number   1
_chemical_formula_structural   Co3H37C32(NO3)4
_chemical_formula_sum   'Co12 H148 C128 N16 O48'
_cell_volume   4461.90751487
_cell_formula_units_Z   4
loop_
 _symmetry_equiv_pos_site_id
 _symmetry_equiv_pos_as_xyz
  1  'x, y, z'
loop_
 _atom_site_type_symbol
 _atom_site_label
 _atom_site_symmetry_multiplicity
 _atom_site_fract_x
 _atom_site_fract_y
 _atom_site_fract_z
 _atom_site_occupancy
  Co  Co0  1  0.09269000  0.15548000  0.25000000  1
  Co  Co1  1  0.14724000  0.68721000  0.16213000  1
  Co  Co2  1  0.14724000  0.68721000  0.33787000  1
  Co  Co3  1  0.35276000  0.18721000  0.16213000  1
  Co  Co4  1  0.35276000  0.18721000  0.33787000  1
  Co  Co5  1  0.40731000  0.65548000  0.25000000  1
  Co  Co6  1  0.59269000  0.34452000  0.75000000  1
  Co  Co7  1  0.64724000  0.81279000  0.66213000  1
  Co  Co8  1  0.64724000  0.81279000  0.83787000  1
  Co  Co9  1  0.85276000  0.31279000  0.66213000  1
  Co  Co10  1  0.85276000  0.31279000  0.83787000  1
  Co  Co11  1  0.90731000  0.84452000  0.75000000  1
  H  H12  1  0.02570000  0.48940000  0.22090000  1
  H  H13  1  0.02570000  0.48940000  0.27910000  1
  H  H14  1  0.03530000  0.50260000  0.64820000  1
  H  H15  1  0.03530000  0.50260000  0.85180000  1
  H  H16  1  0.04470000  0.35630000  0.56510000  1
  H  H17  1  0.04470000  0.35630000  0.93490000  1
  H  H18  1  0.05970000  0.85120000  0.54000000  1
  H  H19  1  0.05970000  0.85120000  0.96000000  1
  H  H20  1  0.06040000  0.68380000  0.64790000  1
  H  H21  1  0.06040000  0.68380000  0.85210000  1
  H  H22  1  0.08400000  0.39290000  0.11490000  1
  H  H23  1  0.08400000  0.39290000  0.38510000  1
  H  H24  1  0.08940000  0.38010000  0.19620000  1
  H  H25  1  0.08940000  0.38010000  0.30380000  1
  H  H26  1  0.10640000  0.62610000  0.70060000  1
  H  H27  1  0.10640000  0.62610000  0.79940000  1
  H  H28  1  0.10840000  0.78500000  0.66510000  1
  H  H29  1  0.10840000  0.78500000  0.83490000  1
  H  H30  1  0.11270000  0.61190000  0.61970000  1
  H  H31  1  0.11270000  0.61190000  0.88030000  1
  H  H32  1  0.12800000  0.03510000  0.15440000  1
  H  H33  1  0.12800000  0.03510000  0.34560000  1
  H  H34  1  0.14810000  0.31550000  0.02700000  1
  H  H35  1  0.14810000  0.31550000  0.47300000  1
  H  H36  1  0.14930000  0.80940000  0.05790000  1
  H  H37  1  0.14930000  0.80940000  0.44210000  1
  H  H38  1  0.15340000  0.91360000  0.15110000  1
  H  H39  1  0.15340000  0.91360000  0.34890000  1
  H  H40  1  0.16100000  0.48640000  0.10740000  1
  H  H41  1  0.16100000  0.48640000  0.39260000  1
  H  H42  1  0.17280000  0.28020000  0.25000000  1
  H  H43  1  0.18680000  0.51560000  0.18100000  1
  H  H44  1  0.18680000  0.51560000  0.31900000  1
  H  H45  1  0.19830000  0.28330000  0.66420000  1
  H  H46  1  0.19830000  0.28330000  0.83580000  1
  H  H47  1  0.22540000  0.57960000  0.12980000  1
  H  H48  1  0.22540000  0.57960000  0.37020000  1
  H  H49  1  0.27460000  0.07960000  0.12980000  1
  H  H50  1  0.27460000  0.07960000  0.37020000  1
  H  H51  1  0.30170000  0.78330000  0.66420000  1
  H  H52  1  0.30170000  0.78330000  0.83580000  1
  H  H53  1  0.31320000  0.01560000  0.18100000  1
  H  H54  1  0.31320000  0.01560000  0.31900000  1
  H  H55  1  0.32720000  0.78020000  0.25000000  1
  H  H56  1  0.33900000  0.98640000  0.10740000  1
  H  H57  1  0.33900000  0.98640000  0.39260000  1
  H  H58  1  0.34660000  0.41360000  0.15110000  1
  H  H59  1  0.34660000  0.41360000  0.34890000  1
  H  H60  1  0.35070000  0.30940000  0.05790000  1
  H  H61  1  0.35070000  0.30940000  0.44210000  1
  H  H62  1  0.35190000  0.81550000  0.02700000  1
  H  H63  1  0.35190000  0.81550000  0.47300000  1
  H  H64  1  0.37200000  0.53510000  0.15440000  1
  H  H65  1  0.37200000  0.53510000  0.34560000  1
  H  H66  1  0.38730000  0.11190000  0.61970000  1
  H  H67  1  0.38730000  0.11190000  0.88030000  1
  H  H68  1  0.39160000  0.28500000  0.66510000  1
  H  H69  1  0.39160000  0.28500000  0.83490000  1
  H  H70  1  0.39360000  0.12610000  0.70060000  1
  H  H71  1  0.39360000  0.12610000  0.79940000  1
  H  H72  1  0.41060000  0.88010000  0.19620000  1
  H  H73  1  0.41060000  0.88010000  0.30380000  1
  H  H74  1  0.41600000  0.89290000  0.11490000  1
  H  H75  1  0.41600000  0.89290000  0.38510000  1
  H  H76  1  0.43960000  0.18380000  0.64790000  1
  H  H77  1  0.43960000  0.18380000  0.85210000  1
  H  H78  1  0.44030000  0.35120000  0.54000000  1
  H  H79  1  0.44030000  0.35120000  0.96000000  1
  H  H80  1  0.45530000  0.85630000  0.56510000  1
  H  H81  1  0.45530000  0.85630000  0.93490000  1
  H  H82  1  0.46470000  0.00260000  0.64820000  1
  H  H83  1  0.46470000  0.00260000  0.85180000  1
  H  H84  1  0.47430000  0.98940000  0.22090000  1
  H  H85  1  0.47430000  0.98940000  0.27910000  1
  H  H86  1  0.52570000  0.01060000  0.72090000  1
  H  H87  1  0.52570000  0.01060000  0.77910000  1
  H  H88  1  0.53530000  0.99740000  0.14820000  1
  H  H89  1  0.53530000  0.99740000  0.35180000  1
  H  H90  1  0.54470000  0.14370000  0.06510000  1
  H  H91  1  0.54470000  0.14370000  0.43490000  1
  H  H92  1  0.55970000  0.64880000  0.04000000  1
  H  H93  1  0.55970000  0.64880000  0.46000000  1
  H  H94  1  0.56040000  0.81620000  0.14790000  1
  H  H95  1  0.56040000  0.81620000  0.35210000  1
  H  H96  1  0.58400000  0.10710000  0.61490000  1
  H  H97  1  0.58400000  0.10710000  0.88510000  1
  H  H98  1  0.58940000  0.11990000  0.69620000  1
  H  H99  1  0.58940000  0.11990000  0.80380000  1
  H  H100  1  0.60640000  0.87390000  0.20060000  1
  H  H101  1  0.60640000  0.87390000  0.29940000  1
  H  H102  1  0.60840000  0.71500000  0.16510000  1
  H  H103  1  0.60840000  0.71500000  0.33490000  1
  H  H104  1  0.61270000  0.88810000  0.11970000  1
  H  H105  1  0.61270000  0.88810000  0.38030000  1
  H  H106  1  0.62800000  0.46490000  0.65440000  1
  H  H107  1  0.62800000  0.46490000  0.84560000  1
  H  H108  1  0.64810000  0.18450000  0.52700000  1
  H  H109  1  0.64810000  0.18450000  0.97300000  1
  H  H110  1  0.64930000  0.69060000  0.55790000  1
  H  H111  1  0.64930000  0.69060000  0.94210000  1
  H  H112  1  0.65340000  0.58640000  0.65110000  1
  H  H113  1  0.65340000  0.58640000  0.84890000  1
  H  H114  1  0.66100000  0.01360000  0.60740000  1
  H  H115  1  0.66100000  0.01360000  0.89260000  1
  H  H116  1  0.67280000  0.21980000  0.75000000  1
  H  H117  1  0.68680000  0.98440000  0.68100000  1
  H  H118  1  0.68680000  0.98440000  0.81900000  1
  H  H119  1  0.69830000  0.21670000  0.16420000  1
  H  H120  1  0.69830000  0.21670000  0.33580000  1
  H  H121  1  0.72540000  0.92040000  0.62980000  1
  H  H122  1  0.72540000  0.92040000  0.87020000  1
  H  H123  1  0.77460000  0.42040000  0.62980000  1
  H  H124  1  0.77460000  0.42040000  0.87020000  1
  H  H125  1  0.80170000  0.71670000  0.16420000  1
  H  H126  1  0.80170000  0.71670000  0.33580000  1
  H  H127  1  0.81320000  0.48440000  0.68100000  1
  H  H128  1  0.81320000  0.48440000  0.81900000  1
  H  H129  1  0.82720000  0.71980000  0.75000000  1
  H  H130  1  0.83900000  0.51360000  0.60740000  1
  H  H131  1  0.83900000  0.51360000  0.89260000  1
  H  H132  1  0.84660000  0.08640000  0.65110000  1
  H  H133  1  0.84660000  0.08640000  0.84890000  1
  H  H134  1  0.85070000  0.19060000  0.55790000  1
  H  H135  1  0.85070000  0.19060000  0.94210000  1
  H  H136  1  0.85190000  0.68450000  0.52700000  1
  H  H137  1  0.85190000  0.68450000  0.97300000  1
  H  H138  1  0.87200000  0.96490000  0.65440000  1
  H  H139  1  0.87200000  0.96490000  0.84560000  1
  H  H140  1  0.88730000  0.38810000  0.11970000  1
  H  H141  1  0.88730000  0.38810000  0.38030000  1
  H  H142  1  0.89160000  0.21500000  0.16510000  1
  H  H143  1  0.89160000  0.21500000  0.33490000  1
  H  H144  1  0.89360000  0.37390000  0.20060000  1
  H  H145  1  0.89360000  0.37390000  0.29940000  1
  H  H146  1  0.91060000  0.61990000  0.69620000  1
  H  H147  1  0.91060000  0.61990000  0.80380000  1
  H  H148  1  0.91600000  0.60710000  0.61490000  1
  H  H149  1  0.91600000  0.60710000  0.88510000  1
  H  H150  1  0.93960000  0.31620000  0.14790000  1
  H  H151  1  0.93960000  0.31620000  0.35210000  1
  H  H152  1  0.94030000  0.14880000  0.04000000  1
  H  H153  1  0.94030000  0.14880000  0.46000000  1
  H  H154  1  0.95530000  0.64370000  0.06510000  1
  H  H155  1  0.95530000  0.64370000  0.43490000  1
  H  H156  1  0.96470000  0.49740000  0.14820000  1
  H  H157  1  0.96470000  0.49740000  0.35180000  1
  H  H158  1  0.97430000  0.51060000  0.72090000  1
  H  H159  1  0.97430000  0.51060000  0.77910000  1
  C  C160  1  0.02480000  0.31280000  0.54440000  1
  C  C161  1  0.02480000  0.31280000  0.95560000  1
  C  C162  1  0.03270000  0.48020000  0.17100000  1
  C  C163  1  0.03270000  0.48020000  0.32900000  1
  C  C164  1  0.03480000  0.80920000  0.51830000  1
  C  C165  1  0.03480000  0.80920000  0.98170000  1
  C  C166  1  0.04500000  0.40120000  0.15890000  1
  C  C167  1  0.04500000  0.40120000  0.34110000  1
  C  C168  1  0.05110000  0.34360000  0.75000000  1
  C  C169  1  0.05530000  0.22660000  0.04330000  1
  C  C170  1  0.05530000  0.22660000  0.45670000  1
  C  C171  1  0.06900000  0.63320000  0.65660000  1
  C  C172  1  0.06900000  0.63320000  0.84340000  1
  C  C173  1  0.08610000  0.28940000  0.01110000  1
  C  C174  1  0.08610000  0.28940000  0.48890000  1
  C  C175  1  0.08930000  0.78310000  0.03960000  1
  C  C176  1  0.08930000  0.78310000  0.46040000  1
  C  C177  1  0.10720000  0.89740000  0.25000000  1
  C  C178  1  0.11560000  0.00880000  0.19520000  1
  C  C179  1  0.11560000  0.00880000  0.30480000  1
  C  C180  1  0.12020000  0.20030000  0.10440000  1
  C  C181  1  0.12020000  0.20030000  0.39560000  1
  C  C182  1  0.12400000  0.81830000  0.25000000  1
  C  C183  1  0.12940000  0.93590000  0.19210000  1
  C  C184  1  0.12940000  0.93590000  0.30790000  1
  C  C185  1  0.13320000  0.51950000  0.14270000  1
  C  C186  1  0.13320000  0.51950000  0.35730000  1
  C  C187  1  0.14760000  0.80900000  0.70030000  1
  C  C188  1  0.14760000  0.80900000  0.79970000  1
  C  C189  1  0.17840000  0.34430000  0.75000000  1
  C  C190  1  0.23680000  0.30820000  0.69910000  1
  C  C191  1  0.23680000  0.30820000  0.80090000  1
  C  C192  1  0.26320000  0.80820000  0.69910000  1
  C  C193  1  0.26320000  0.80820000  0.80090000  1
  C  C194  1  0.32160000  0.84430000  0.75000000  1
  C  C195  1  0.35240000  0.30900000  0.70030000  1
  C  C196  1  0.35240000  0.30900000  0.79970000  1
  C  C197  1  0.36680000  0.01950000  0.14270000  1
  C  C198  1  0.36680000  0.01950000  0.35730000  1
  C  C199  1  0.37060000  0.43590000  0.19210000  1
  C  C200  1  0.37060000  0.43590000  0.30790000  1
  C  C201  1  0.37600000  0.31830000  0.25000000  1
  C  C202  1  0.37980000  0.70030000  0.10440000  1
  C  C203  1  0.37980000  0.70030000  0.39560000  1
  C  C204  1  0.38440000  0.50880000  0.19520000  1
  C  C205  1  0.38440000  0.50880000  0.30480000  1
  C  C206  1  0.39280000  0.39740000  0.25000000  1
  C  C207  1  0.41070000  0.28310000  0.03960000  1
  C  C208  1  0.41070000  0.28310000  0.46040000  1
  C  C209  1  0.41390000  0.78940000  0.01110000  1
  C  C210  1  0.41390000  0.78940000  0.48890000  1
  C  C211  1  0.43100000  0.13320000  0.65660000  1
  C  C212  1  0.43100000  0.13320000  0.84340000  1
  C  C213  1  0.44470000  0.72660000  0.04330000  1
  C  C214  1  0.44470000  0.72660000  0.45670000  1
  C  C215  1  0.44890000  0.84360000  0.75000000  1
  C  C216  1  0.45500000  0.90120000  0.15890000  1
  C  C217  1  0.45500000  0.90120000  0.34110000  1
  C  C218  1  0.46520000  0.30920000  0.51830000  1
  C  C219  1  0.46520000  0.30920000  0.98170000  1
  C  C220  1  0.46730000  0.98020000  0.17100000  1
  C  C221  1  0.46730000  0.98020000  0.32900000  1
  C  C222  1  0.47520000  0.81280000  0.54440000  1
  C  C223  1  0.47520000  0.81280000  0.95560000  1
  C  C224  1  0.52480000  0.18720000  0.04440000  1
  C  C225  1  0.52480000  0.18720000  0.45560000  1
  C  C226  1  0.53270000  0.01980000  0.67100000  1
  C  C227  1  0.53270000  0.01980000  0.82900000  1
  C  C228  1  0.53480000  0.69080000  0.01830000  1
  C  C229  1  0.53480000  0.69080000  0.48170000  1
  C  C230  1  0.54500000  0.09880000  0.65890000  1
  C  C231  1  0.54500000  0.09880000  0.84110000  1
  C  C232  1  0.55110000  0.15640000  0.25000000  1
  C  C233  1  0.55530000  0.27340000  0.54330000  1
  C  C234  1  0.55530000  0.27340000  0.95670000  1
  C  C235  1  0.56900000  0.86680000  0.15660000  1
  C  C236  1  0.56900000  0.86680000  0.34340000  1
  C  C237  1  0.58610000  0.21060000  0.51110000  1
  C  C238  1  0.58610000  0.21060000  0.98890000  1
  C  C239  1  0.58930000  0.71690000  0.53960000  1
  C  C240  1  0.58930000  0.71690000  0.96040000  1
  C  C241  1  0.60720000  0.60260000  0.75000000  1
  C  C242  1  0.61560000  0.49120000  0.69520000  1
  C  C243  1  0.61560000  0.49120000  0.80480000  1
  C  C244  1  0.62020000  0.29970000  0.60440000  1
  C  C245  1  0.62020000  0.29970000  0.89560000  1
  C  C246  1  0.62400000  0.68170000  0.75000000  1
  C  C247  1  0.62940000  0.56410000  0.69210000  1
  C  C248  1  0.62940000  0.56410000  0.80790000  1
  C  C249  1  0.63320000  0.98050000  0.64270000  1
  C  C250  1  0.63320000  0.98050000  0.85730000  1
  C  C251  1  0.64760000  0.69100000  0.20030000  1
  C  C252  1  0.64760000  0.69100000  0.29970000  1
  C  C253  1  0.67840000  0.15570000  0.25000000  1
  C  C254  1  0.73680000  0.19180000  0.19910000  1
  C  C255  1  0.73680000  0.19180000  0.30090000  1
  C  C256  1  0.76320000  0.69180000  0.19910000  1
  C  C257  1  0.76320000  0.69180000  0.30090000  1
  C  C258  1  0.82160000  0.65570000  0.25000000  1
  C  C259  1  0.85240000  0.19100000  0.20030000  1
  C  C260  1  0.85240000  0.19100000  0.29970000  1
  C  C261  1  0.86680000  0.48050000  0.64270000  1
  C  C262  1  0.86680000  0.48050000  0.85730000  1
  C  C263  1  0.87060000  0.06410000  0.69210000  1
  C  C264  1  0.87060000  0.06410000  0.80790000  1
  C  C265  1  0.87600000  0.18170000  0.75000000  1
  C  C266  1  0.87980000  0.79970000  0.60440000  1
  C  C267  1  0.87980000  0.79970000  0.89560000  1
  C  C268  1  0.88440000  0.99120000  0.69520000  1
  C  C269  1  0.88440000  0.99120000  0.80480000  1
  C  C270  1  0.89280000  0.10260000  0.75000000  1
  C  C271  1  0.91070000  0.21690000  0.53960000  1
  C  C272  1  0.91070000  0.21690000  0.96040000  1
  C  C273  1  0.91390000  0.71060000  0.51110000  1
  C  C274  1  0.91390000  0.71060000  0.98890000  1
  C  C275  1  0.93100000  0.36680000  0.15660000  1
  C  C276  1  0.93100000  0.36680000  0.34340000  1
  C  C277  1  0.94470000  0.77340000  0.54330000  1
  C  C278  1  0.94470000  0.77340000  0.95670000  1
  C  C279  1  0.94890000  0.65640000  0.25000000  1
  C  C280  1  0.95500000  0.59880000  0.65890000  1
  C  C281  1  0.95500000  0.59880000  0.84110000  1
  C  C282  1  0.96520000  0.19080000  0.01830000  1
  C  C283  1  0.96520000  0.19080000  0.48170000  1
  C  C284  1  0.96730000  0.51980000  0.67100000  1
  C  C285  1  0.96730000  0.51980000  0.82900000  1
  C  C286  1  0.97520000  0.68720000  0.04440000  1
  C  C287  1  0.97520000  0.68720000  0.45560000  1
  N  N288  1  0.06100000  0.72280000  0.07030000  1
  N  N289  1  0.06100000  0.72280000  0.42970000  1
  N  N290  1  0.08710000  0.04300000  0.25000000  1
  N  N291  1  0.08920000  0.84280000  0.75000000  1
  N  N292  1  0.41080000  0.34280000  0.75000000  1
  N  N293  1  0.41290000  0.54300000  0.25000000  1
  N  N294  1  0.43900000  0.22280000  0.07030000  1
  N  N295  1  0.43900000  0.22280000  0.42970000  1
  N  N296  1  0.56100000  0.77720000  0.57030000  1
  N  N297  1  0.56100000  0.77720000  0.92970000  1
  N  N298  1  0.58710000  0.45700000  0.75000000  1
  N  N299  1  0.58920000  0.65720000  0.25000000  1
  N  N300  1  0.91080000  0.15720000  0.25000000  1
  N  N301  1  0.91290000  0.95700000  0.75000000  1
  N  N302  1  0.93900000  0.27720000  0.57030000  1
  N  N303  1  0.93900000  0.27720000  0.92970000  1
  O  O304  1  0.00660000  0.34410000  0.69380000  1
  O  O305  1  0.00660000  0.34410000  0.80620000  1
  O  O306  1  0.07270000  0.15720000  0.14380000  1
  O  O307  1  0.07270000  0.15720000  0.35620000  1
  O  O308  1  0.10500000  0.26800000  0.25000000  1
  O  O309  1  0.13130000  0.78920000  0.19620000  1
  O  O310  1  0.13130000  0.78920000  0.30380000  1
  O  O311  1  0.16030000  0.58570000  0.11420000  1
  O  O312  1  0.16030000  0.58570000  0.38580000  1
  O  O313  1  0.21640000  0.22360000  0.11040000  1
  O  O314  1  0.21640000  0.22360000  0.38960000  1
  O  O315  1  0.23200000  0.65230000  0.25000000  1
  O  O316  1  0.26800000  0.15230000  0.25000000  1
  O  O317  1  0.28360000  0.72360000  0.11040000  1
  O  O318  1  0.28360000  0.72360000  0.38960000  1
  O  O319  1  0.33970000  0.08570000  0.11420000  1
  O  O320  1  0.33970000  0.08570000  0.38580000  1
  O  O321  1  0.36870000  0.28920000  0.19620000  1
  O  O322  1  0.36870000  0.28920000  0.30380000  1
  O  O323  1  0.39500000  0.76800000  0.25000000  1
  O  O324  1  0.42730000  0.65720000  0.14380000  1
  O  O325  1  0.42730000  0.65720000  0.35620000  1
  O  O326  1  0.49340000  0.84410000  0.69380000  1
  O  O327  1  0.49340000  0.84410000  0.80620000  1
  O  O328  1  0.50660000  0.15590000  0.19380000  1
  O  O329  1  0.50660000  0.15590000  0.30620000  1
  O  O330  1  0.57270000  0.34280000  0.64380000  1
  O  O331  1  0.57270000  0.34280000  0.85620000  1
  O  O332  1  0.60500000  0.23200000  0.75000000  1
  O  O333  1  0.63130000  0.71080000  0.69620000  1
  O  O334  1  0.63130000  0.71080000  0.80380000  1
  O  O335  1  0.66030000  0.91430000  0.61420000  1
  O  O336  1  0.66030000  0.91430000  0.88580000  1
  O  O337  1  0.71640000  0.27640000  0.61040000  1
  O  O338  1  0.71640000  0.27640000  0.88960000  1
  O  O339  1  0.73200000  0.84770000  0.75000000  1
  O  O340  1  0.76800000  0.34770000  0.75000000  1
  O  O341  1  0.78360000  0.77640000  0.61040000  1
  O  O342  1  0.78360000  0.77640000  0.88960000  1
  O  O343  1  0.83970000  0.41430000  0.61420000  1
  O  O344  1  0.83970000  0.41430000  0.88580000  1
  O  O345  1  0.86870000  0.21080000  0.69620000  1
  O  O346  1  0.86870000  0.21080000  0.80380000  1
  O  O347  1  0.89500000  0.73200000  0.75000000  1
  O  O348  1  0.92730000  0.84280000  0.64380000  1
  O  O349  1  0.92730000  0.84280000  0.85620000  1
  O  O350  1  0.99340000  0.65590000  0.19380000  1
  O  O351  1  0.99340000  0.65590000  0.30620000  1
