# generated using pymatgen
data_CaCd2H16(C2O)16
_symmetry_space_group_name_H-M   'P 1'
_cell_length_a   18.62840000
_cell_length_b   19.99900000
_cell_length_c   35.12300000
_cell_angle_alpha   90.00000000
_cell_angle_beta   90.00000000
_cell_angle_gamma   90.00000000
_symmetry_Int_Tables_number   1
_chemical_formula_structural   CaCd2H16(C2O)16
_chemical_formula_sum   'Ca8 Cd16 H128 C256 O128'
_cell_volume   13085.05157871
_cell_formula_units_Z   8
loop_
 _symmetry_equiv_pos_site_id
 _symmetry_equiv_pos_as_xyz
  1  'x, y, z'
loop_
 _atom_site_type_symbol
 _atom_site_label
 _atom_site_symmetry_multiplicity
 _atom_site_fract_x
 _atom_site_fract_y
 _atom_site_fract_z
 _atom_site_occupancy
  Ca  Ca0  1  0.22882000  0.98046000  0.38316000  1
  Ca  Ca1  1  0.23396000  0.77774000  0.89356000  1
  Ca  Ca2  1  0.73396000  0.72226000  0.39356000  1
  Ca  Ca3  1  0.72882000  0.51954000  0.88316000  1
  Ca  Ca4  1  0.27118000  0.48046000  0.38316000  1
  Ca  Ca5  1  0.26604000  0.27774000  0.89356000  1
  Ca  Ca6  1  0.76604000  0.22226000  0.39356000  1
  Ca  Ca7  1  0.77118000  0.01954000  0.88316000  1
  Cd  Cd8  1  0.76570000  0.99941000  0.78092000  1
  Cd  Cd9  1  0.25470000  0.93956000  0.48190000  1
  Cd  Cd10  1  0.22973000  0.81886000  0.78888000  1
  Cd  Cd11  1  0.75795000  0.75265000  0.49588000  1
  Cd  Cd12  1  0.25795000  0.74735000  0.99588000  1
  Cd  Cd13  1  0.72973000  0.68114000  0.28888000  1
  Cd  Cd14  1  0.75470000  0.56044000  0.98190000  1
  Cd  Cd15  1  0.26570000  0.50059000  0.28092000  1
  Cd  Cd16  1  0.73430000  0.49941000  0.78092000  1
  Cd  Cd17  1  0.24530000  0.43956000  0.48190000  1
  Cd  Cd18  1  0.27027000  0.31886000  0.78888000  1
  Cd  Cd19  1  0.74205000  0.25265000  0.49588000  1
  Cd  Cd20  1  0.24205000  0.24735000  0.99588000  1
  Cd  Cd21  1  0.77027000  0.18114000  0.28888000  1
  Cd  Cd22  1  0.74530000  0.06044000  0.98190000  1
  Cd  Cd23  1  0.23430000  0.00059000  0.28092000  1
  H  H24  1  0.83590000  0.97400000  0.44120000  1
  H  H25  1  0.65180000  0.96810000  0.34980000  1
  H  H26  1  0.68720000  0.96760000  0.65080000  1
  H  H27  1  0.94700000  0.94120000  0.02150000  1
  H  H28  1  0.17940000  0.93500000  0.90050000  1
  H  H29  1  0.33360000  0.92920000  0.60950000  1
  H  H30  1  0.56770000  0.92530000  0.99810000  1
  H  H31  1  0.69440000  0.92320000  0.58810000  1
  H  H32  1  0.55780000  0.91770000  0.88540000  1
  H  H33  1  0.94370000  0.91330000  0.91060000  1
  H  H34  1  0.33120000  0.90460000  0.67230000  1
  H  H35  1  0.02310000  0.89930000  0.37500000  1
  H  H36  1  0.44340000  0.88360000  0.26700000  1
  H  H37  1  0.66440000  0.88070000  0.39070000  1
  H  H38  1  0.05290000  0.87950000  0.02670000  1
  H  H39  1  0.45740000  0.87430000  0.00510000  1
  H  H40  1  0.82380000  0.86540000  0.88340000  1
  H  H41  1  0.05760000  0.86100000  0.91380000  1
  H  H42  1  0.44930000  0.86030000  0.88860000  1
  H  H43  1  0.03890000  0.85770000  0.26290000  1
  H  H44  1  0.39920000  0.85140000  0.37740000  1
  H  H45  1  0.91490000  0.84500000  0.37730000  1
  H  H46  1  0.83810000  0.83860000  0.68350000  1
  H  H47  1  0.54750000  0.82370000  0.27340000  1
  H  H48  1  0.17120000  0.81650000  0.37450000  1
  H  H49  1  0.93100000  0.80020000  0.26680000  1
  H  H50  1  0.18840000  0.79220000  0.58660000  1
  H  H51  1  0.50240000  0.78880000  0.38370000  1
  H  H52  1  0.82670000  0.78330000  0.62650000  1
  H  H53  1  0.64950000  0.78050000  0.83840000  1
  H  H54  1  0.84200000  0.77210000  0.92140000  1
  H  H55  1  0.17830000  0.76460000  0.65150000  1
  H  H56  1  0.67830000  0.73540000  0.15150000  1
  H  H57  1  0.34200000  0.72790000  0.42140000  1
  H  H58  1  0.14950000  0.71950000  0.33840000  1
  H  H59  1  0.32670000  0.71670000  0.12650000  1
  H  H60  1  0.00240000  0.71120000  0.88370000  1
  H  H61  1  0.68840000  0.70780000  0.08660000  1
  H  H62  1  0.43100000  0.69980000  0.76680000  1
  H  H63  1  0.67120000  0.68350000  0.87450000  1
  H  H64  1  0.04750000  0.67630000  0.77340000  1
  H  H65  1  0.33810000  0.66140000  0.18350000  1
  H  H66  1  0.41490000  0.65500000  0.87730000  1
  H  H67  1  0.89920000  0.64860000  0.87740000  1
  H  H68  1  0.53890000  0.64230000  0.76290000  1
  H  H69  1  0.94930000  0.63970000  0.38860000  1
  H  H70  1  0.55760000  0.63900000  0.41380000  1
  H  H71  1  0.32380000  0.63460000  0.38340000  1
  H  H72  1  0.95740000  0.62570000  0.50510000  1
  H  H73  1  0.55290000  0.62050000  0.52670000  1
  H  H74  1  0.16440000  0.61930000  0.89070000  1
  H  H75  1  0.94340000  0.61640000  0.76700000  1
  H  H76  1  0.52310000  0.60070000  0.87500000  1
  H  H77  1  0.83120000  0.59540000  0.17230000  1
  H  H78  1  0.44370000  0.58670000  0.41060000  1
  H  H79  1  0.05780000  0.58230000  0.38540000  1
  H  H80  1  0.19440000  0.57680000  0.08810000  1
  H  H81  1  0.06770000  0.57470000  0.49810000  1
  H  H82  1  0.83360000  0.57080000  0.10950000  1
  H  H83  1  0.67940000  0.56500000  0.40050000  1
  H  H84  1  0.44700000  0.55880000  0.52150000  1
  H  H85  1  0.18720000  0.53240000  0.15080000  1
  H  H86  1  0.15180000  0.53190000  0.84980000  1
  H  H87  1  0.33590000  0.52600000  0.94120000  1
  H  H88  1  0.66410000  0.47400000  0.44120000  1
  H  H89  1  0.84820000  0.46810000  0.34980000  1
  H  H90  1  0.81280000  0.46760000  0.65080000  1
  H  H91  1  0.55300000  0.44120000  0.02150000  1
  H  H92  1  0.32060000  0.43500000  0.90050000  1
  H  H93  1  0.16640000  0.42920000  0.60950000  1
  H  H94  1  0.93230000  0.42530000  0.99810000  1
  H  H95  1  0.80560000  0.42320000  0.58810000  1
  H  H96  1  0.94220000  0.41770000  0.88540000  1
  H  H97  1  0.55630000  0.41330000  0.91060000  1
  H  H98  1  0.16880000  0.40460000  0.67230000  1
  H  H99  1  0.47690000  0.39930000  0.37500000  1
  H  H100  1  0.05660000  0.38360000  0.26700000  1
  H  H101  1  0.83560000  0.38070000  0.39070000  1
  H  H102  1  0.44710000  0.37950000  0.02670000  1
  H  H103  1  0.04260000  0.37430000  0.00510000  1
  H  H104  1  0.67620000  0.36540000  0.88340000  1
  H  H105  1  0.44240000  0.36100000  0.91380000  1
  H  H106  1  0.05070000  0.36030000  0.88860000  1
  H  H107  1  0.46110000  0.35770000  0.26290000  1
  H  H108  1  0.10080000  0.35140000  0.37740000  1
  H  H109  1  0.58510000  0.34500000  0.37730000  1
  H  H110  1  0.66190000  0.33860000  0.68350000  1
  H  H111  1  0.95250000  0.32370000  0.27340000  1
  H  H112  1  0.32880000  0.31650000  0.37450000  1
  H  H113  1  0.56900000  0.30020000  0.26680000  1
  H  H114  1  0.31160000  0.29220000  0.58660000  1
  H  H115  1  0.99760000  0.28880000  0.38370000  1
  H  H116  1  0.67330000  0.28330000  0.62650000  1
  H  H117  1  0.85050000  0.28050000  0.83840000  1
  H  H118  1  0.65800000  0.27210000  0.92140000  1
  H  H119  1  0.32170000  0.26460000  0.65150000  1
  H  H120  1  0.82170000  0.23540000  0.15150000  1
  H  H121  1  0.15800000  0.22790000  0.42140000  1
  H  H122  1  0.35050000  0.21950000  0.33840000  1
  H  H123  1  0.17330000  0.21670000  0.12650000  1
  H  H124  1  0.49760000  0.21120000  0.88370000  1
  H  H125  1  0.81160000  0.20780000  0.08660000  1
  H  H126  1  0.06900000  0.19980000  0.76680000  1
  H  H127  1  0.82880000  0.18350000  0.87450000  1
  H  H128  1  0.45250000  0.17630000  0.77340000  1
  H  H129  1  0.16190000  0.16140000  0.18350000  1
  H  H130  1  0.08510000  0.15500000  0.87730000  1
  H  H131  1  0.60080000  0.14860000  0.87740000  1
  H  H132  1  0.96110000  0.14230000  0.76290000  1
  H  H133  1  0.55070000  0.13970000  0.38860000  1
  H  H134  1  0.94240000  0.13900000  0.41380000  1
  H  H135  1  0.17620000  0.13460000  0.38340000  1
  H  H136  1  0.54260000  0.12570000  0.50510000  1
  H  H137  1  0.94710000  0.12050000  0.52670000  1
  H  H138  1  0.33560000  0.11930000  0.89070000  1
  H  H139  1  0.55660000  0.11640000  0.76700000  1
  H  H140  1  0.97690000  0.10070000  0.87500000  1
  H  H141  1  0.66880000  0.09540000  0.17230000  1
  H  H142  1  0.05630000  0.08670000  0.41060000  1
  H  H143  1  0.44220000  0.08230000  0.38540000  1
  H  H144  1  0.30560000  0.07680000  0.08810000  1
  H  H145  1  0.43230000  0.07470000  0.49810000  1
  H  H146  1  0.66640000  0.07080000  0.10950000  1
  H  H147  1  0.82060000  0.06500000  0.40050000  1
  H  H148  1  0.05300000  0.05880000  0.52150000  1
  H  H149  1  0.31280000  0.03240000  0.15080000  1
  H  H150  1  0.34820000  0.03190000  0.84980000  1
  H  H151  1  0.16410000  0.02600000  0.94120000  1
  C  C152  1  0.79990000  0.97350000  0.42290000  1
  C  C153  1  0.26850000  0.97330000  0.87110000  1
  C  C154  1  0.20970000  0.97180000  0.89890000  1
  C  C155  1  0.68750000  0.96950000  0.36830000  1
  C  C156  1  0.86670000  0.96940000  0.96120000  1
  C  C157  1  0.64190000  0.96340000  0.93830000  1
  C  C158  1  0.76530000  0.94330000  0.71160000  1
  C  C159  1  0.93670000  0.93230000  0.96510000  1
  C  C160  1  0.71790000  0.93230000  0.64520000  1
  C  C161  1  0.10870000  0.92780000  0.31700000  1
  C  C162  1  0.56950000  0.92550000  0.94060000  1
  C  C163  1  0.96850000  0.92360000  0.99980000  1
  C  C164  1  0.27310000  0.91770000  0.84290000  1
  C  C165  1  0.69610000  0.91660000  0.39210000  1
  C  C166  1  0.75330000  0.91550000  0.41910000  1
  C  C167  1  0.54170000  0.91260000  0.97660000  1
  C  C168  1  0.34040000  0.90920000  0.31720000  1
  C  C169  1  0.96680000  0.90870000  0.93400000  1
  C  C170  1  0.53730000  0.90780000  0.90890000  1
  C  C171  1  0.76450000  0.90640000  0.67370000  1
  C  C172  1  0.71900000  0.90350000  0.60830000  1
  C  C173  1  0.30220000  0.89660000  0.61840000  1
  C  C174  1  0.03300000  0.88820000  0.00300000  1
  C  C175  1  0.26130000  0.88790000  0.55110000  1
  C  C176  1  0.72930000  0.88780000  0.82880000  1
  C  C177  1  0.04100000  0.88630000  0.31920000  1
  C  C178  1  0.30080000  0.88270000  0.65540000  1
  C  C179  1  0.47670000  0.88140000  0.98100000  1
  C  C180  1  0.00420000  0.88050000  0.35300000  1
  C  C181  1  0.03520000  0.87580000  0.93590000  1
  C  C182  1  0.47210000  0.87400000  0.91090000  1
  C  C183  1  0.41040000  0.87140000  0.32130000  1
  C  C184  1  0.06670000  0.86650000  0.97000000  1
  C  C185  1  0.45540000  0.86450000  0.29030000  1
  C  C186  1  0.25880000  0.86410000  0.59290000  1
  C  C187  1  0.43940000  0.86000000  0.94770000  1
  C  C188  1  0.76430000  0.85690000  0.44470000  1
  C  C189  1  0.01400000  0.85520000  0.28580000  1
  C  C190  1  0.80540000  0.85400000  0.66550000  1
  C  C191  1  0.93980000  0.84730000  0.35440000  1
  C  C192  1  0.75700000  0.84630000  0.60340000  1
  C  C193  1  0.42900000  0.84470000  0.35650000  1
  C  C194  1  0.26430000  0.83930000  0.42850000  1
  C  C195  1  0.14020000  0.83340000  0.97290000  1
  C  C196  1  0.25070000  0.83250000  0.66860000  1
  C  C197  1  0.51750000  0.82930000  0.29430000  1
  C  C198  1  0.79320000  0.82880000  0.88180000  1
  C  C199  1  0.73560000  0.82860000  0.85540000  1
  C  C200  1  0.36850000  0.82580000  0.95130000  1
  C  C201  1  0.80020000  0.82190000  0.63090000  1
  C  C202  1  0.94920000  0.82100000  0.28840000  1
  C  C203  1  0.24170000  0.81930000  0.71060000  1
  C  C204  1  0.91120000  0.81700000  0.32200000  1
  C  C205  1  0.21540000  0.81540000  0.60450000  1
  C  C206  1  0.75620000  0.81470000  0.56360000  1
  C  C207  1  0.49120000  0.80850000  0.36050000  1
  C  C208  1  0.53740000  0.80120000  0.32970000  1
  C  C209  1  0.20930000  0.79810000  0.64350000  1
  C  C210  1  0.25070000  0.78110000  0.40270000  1
  C  C211  1  0.20070000  0.77940000  0.37760000  1
  C  C212  1  0.84110000  0.77910000  0.32300000  1
  C  C213  1  0.68930000  0.77830000  0.85430000  1
  C  C214  1  0.80320000  0.77420000  0.90480000  1
  C  C215  1  0.60900000  0.76460000  0.33333333  1
  C  C216  1  0.10900000  0.73540000  0.83330000  1
  C  C217  1  0.30320000  0.72580000  0.40480000  1
  C  C218  1  0.18930000  0.72170000  0.35430000  1
  C  C219  1  0.34110000  0.72090000  0.82300000  1
  C  C220  1  0.70070000  0.72060000  0.87760000  1
  C  C221  1  0.75070000  0.71890000  0.90270000  1
  C  C222  1  0.70930000  0.70190000  0.14350000  1
  C  C223  1  0.03740000  0.69880000  0.82970000  1
  C  C224  1  0.99120000  0.69150000  0.86050000  1
  C  C225  1  0.25620000  0.68530000  0.06360000  1
  C  C226  1  0.71540000  0.68460000  0.10450000  1
  C  C227  1  0.41120000  0.68300000  0.82200000  1
  C  C228  1  0.74170000  0.68070000  0.21060000  1
  C  C229  1  0.44920000  0.67900000  0.78840000  1
  C  C230  1  0.30020000  0.67810000  0.13090000  1
  C  C231  1  0.86850000  0.67420000  0.45130000  1
  C  C232  1  0.23560000  0.67140000  0.35540000  1
  C  C233  1  0.29320000  0.67120000  0.38180000  1
  C  C234  1  0.01750000  0.67070000  0.79430000  1
  C  C235  1  0.75070000  0.66750000  0.16860000  1
  C  C236  1  0.64020000  0.66660000  0.47290000  1
  C  C237  1  0.76430000  0.66070000  0.92850000  1
  C  C238  1  0.92900000  0.65530000  0.85650000  1
  C  C239  1  0.25700000  0.65370000  0.10340000  1
  C  C240  1  0.43980000  0.65270000  0.85440000  1
  C  C241  1  0.30540000  0.64600000  0.16550000  1
  C  C242  1  0.51400000  0.64480000  0.78580000  1
  C  C243  1  0.26430000  0.64310000  0.94470000  1
  C  C244  1  0.93940000  0.64000000  0.44770000  1
  C  C245  1  0.75880000  0.63590000  0.09290000  1
  C  C246  1  0.95540000  0.63550000  0.79030000  1
  C  C247  1  0.56670000  0.63350000  0.47000000  1
  C  C248  1  0.91040000  0.62860000  0.82130000  1
  C  C249  1  0.97210000  0.62600000  0.41090000  1
  C  C250  1  0.53520000  0.62420000  0.43590000  1
  C  C251  1  0.50420000  0.61950000  0.85300000  1
  C  C252  1  0.97670000  0.61860000  0.48100000  1
  C  C253  1  0.80080000  0.61730000  0.15540000  1
  C  C254  1  0.54100000  0.61370000  0.81920000  1
  C  C255  1  0.22930000  0.61220000  0.32880000  1
  C  C256  1  0.76130000  0.61210000  0.05110000  1
  C  C257  1  0.53300000  0.61180000  0.50300000  1
  C  C258  1  0.80220000  0.60340000  0.11840000  1
  C  C259  1  0.21900000  0.59650000  0.10830000  1
  C  C260  1  0.26450000  0.59360000  0.17370000  1
  C  C261  1  0.03730000  0.59220000  0.40890000  1
  C  C262  1  0.46680000  0.59130000  0.43400000  1
  C  C263  1  0.84040000  0.59080000  0.81720000  1
  C  C264  1  0.04170000  0.58740000  0.47660000  1
  C  C265  1  0.25330000  0.58450000  0.91910000  1
  C  C266  1  0.19610000  0.58340000  0.89210000  1
  C  C267  1  0.77310000  0.58230000  0.34290000  1
  C  C268  1  0.46850000  0.57640000  0.49980000  1
  C  C269  1  0.06950000  0.57450000  0.44060000  1
  C  C270  1  0.60870000  0.57220000  0.81700000  1
  C  C271  1  0.43670000  0.56770000  0.46510000  1
  C  C272  1  0.21790000  0.56770000  0.14520000  1
  C  C273  1  0.26530000  0.55670000  0.21160000  1
  C  C274  1  0.14190000  0.53660000  0.43830000  1
  C  C275  1  0.36670000  0.53060000  0.46120000  1
  C  C276  1  0.18750000  0.53050000  0.86830000  1
  C  C277  1  0.70970000  0.52820000  0.39890000  1
  C  C278  1  0.76850000  0.52670000  0.37110000  1
  C  C279  1  0.29990000  0.52650000  0.92290000  1
  C  C280  1  0.70010000  0.47350000  0.42290000  1
  C  C281  1  0.23150000  0.47330000  0.87110000  1
  C  C282  1  0.29030000  0.47180000  0.89890000  1
  C  C283  1  0.81250000  0.46950000  0.36830000  1
  C  C284  1  0.63330000  0.46940000  0.96120000  1
  C  C285  1  0.85810000  0.46340000  0.93830000  1
  C  C286  1  0.73470000  0.44330000  0.71160000  1
  C  C287  1  0.78210000  0.43230000  0.64520000  1
  C  C288  1  0.56330000  0.43230000  0.96510000  1
  C  C289  1  0.39130000  0.42780000  0.31700000  1
  C  C290  1  0.93050000  0.42550000  0.94060000  1
  C  C291  1  0.53150000  0.42360000  0.99980000  1
  C  C292  1  0.22690000  0.41770000  0.84290000  1
  C  C293  1  0.80390000  0.41660000  0.39210000  1
  C  C294  1  0.74670000  0.41550000  0.41910000  1
  C  C295  1  0.95830000  0.41260000  0.97660000  1
  C  C296  1  0.15960000  0.40920000  0.31720000  1
  C  C297  1  0.53320000  0.40870000  0.93400000  1
  C  C298  1  0.96270000  0.40780000  0.90890000  1
  C  C299  1  0.73550000  0.40640000  0.67370000  1
  C  C300  1  0.78100000  0.40350000  0.60830000  1
  C  C301  1  0.19780000  0.39660000  0.61840000  1
  C  C302  1  0.46700000  0.38820000  0.00300000  1
  C  C303  1  0.23870000  0.38790000  0.55110000  1
  C  C304  1  0.77070000  0.38780000  0.82880000  1
  C  C305  1  0.45900000  0.38630000  0.31920000  1
  C  C306  1  0.19920000  0.38270000  0.65540000  1
  C  C307  1  0.02330000  0.38140000  0.98100000  1
  C  C308  1  0.49580000  0.38050000  0.35300000  1
  C  C309  1  0.46480000  0.37580000  0.93590000  1
  C  C310  1  0.02790000  0.37400000  0.91090000  1
  C  C311  1  0.08960000  0.37140000  0.32130000  1
  C  C312  1  0.43330000  0.36650000  0.97000000  1
  C  C313  1  0.04460000  0.36450000  0.29030000  1
  C  C314  1  0.24120000  0.36410000  0.59290000  1
  C  C315  1  0.06060000  0.36000000  0.94770000  1
  C  C316  1  0.73570000  0.35690000  0.44470000  1
  C  C317  1  0.48600000  0.35520000  0.28580000  1
  C  C318  1  0.69460000  0.35400000  0.66550000  1
  C  C319  1  0.56020000  0.34730000  0.35440000  1
  C  C320  1  0.74300000  0.34630000  0.60340000  1
  C  C321  1  0.07100000  0.34470000  0.35650000  1
  C  C322  1  0.23570000  0.33930000  0.42850000  1
  C  C323  1  0.35980000  0.33333333  0.97290000  1
  C  C324  1  0.24930000  0.33250000  0.66860000  1
  C  C325  1  0.98250000  0.32930000  0.29430000  1
  C  C326  1  0.70680000  0.32880000  0.88180000  1
  C  C327  1  0.76440000  0.32860000  0.85540000  1
  C  C328  1  0.13150000  0.32580000  0.95130000  1
  C  C329  1  0.69980000  0.32190000  0.63090000  1
  C  C330  1  0.55080000  0.32100000  0.28840000  1
  C  C331  1  0.25830000  0.31930000  0.71060000  1
  C  C332  1  0.58880000  0.31700000  0.32200000  1
  C  C333  1  0.28460000  0.31540000  0.60450000  1
  C  C334  1  0.74380000  0.31470000  0.56360000  1
  C  C335  1  0.00880000  0.30850000  0.36050000  1
  C  C336  1  0.96260000  0.30120000  0.32970000  1
  C  C337  1  0.29070000  0.29810000  0.64350000  1
  C  C338  1  0.24930000  0.28110000  0.40270000  1
  C  C339  1  0.29930000  0.27940000  0.37760000  1
  C  C340  1  0.65890000  0.27910000  0.32300000  1
  C  C341  1  0.81070000  0.27830000  0.85430000  1
  C  C342  1  0.69680000  0.27420000  0.90480000  1
  C  C343  1  0.89100000  0.26460000  0.33333333  1
  C  C344  1  0.39100000  0.23540000  0.83330000  1
  C  C345  1  0.19680000  0.22580000  0.40480000  1
  C  C346  1  0.31070000  0.22170000  0.35430000  1
  C  C347  1  0.15890000  0.22090000  0.82300000  1
  C  C348  1  0.79930000  0.22060000  0.87760000  1
  C  C349  1  0.74930000  0.21890000  0.90270000  1
  C  C350  1  0.79070000  0.20190000  0.14350000  1
  C  C351  1  0.46260000  0.19880000  0.82970000  1
  C  C352  1  0.50880000  0.19150000  0.86050000  1
  C  C353  1  0.24380000  0.18530000  0.06360000  1
  C  C354  1  0.78460000  0.18460000  0.10450000  1
  C  C355  1  0.08880000  0.18300000  0.82200000  1
  C  C356  1  0.75830000  0.18070000  0.21060000  1
  C  C357  1  0.05080000  0.17900000  0.78840000  1
  C  C358  1  0.19980000  0.17810000  0.13090000  1
  C  C359  1  0.63150000  0.17420000  0.45130000  1
  C  C360  1  0.26440000  0.17140000  0.35540000  1
  C  C361  1  0.20680000  0.17120000  0.38180000  1
  C  C362  1  0.48250000  0.17070000  0.79430000  1
  C  C363  1  0.74930000  0.16750000  0.16860000  1
  C  C364  1  0.85980000  0.16660000  0.47290000  1
  C  C365  1  0.73570000  0.16070000  0.92850000  1
  C  C366  1  0.57100000  0.15530000  0.85650000  1
  C  C367  1  0.24300000  0.15370000  0.10340000  1
  C  C368  1  0.06020000  0.15270000  0.85440000  1
  C  C369  1  0.19460000  0.14600000  0.16550000  1
  C  C370  1  0.98600000  0.14480000  0.78580000  1
  C  C371  1  0.23570000  0.14310000  0.94470000  1
  C  C372  1  0.56060000  0.14000000  0.44770000  1
  C  C373  1  0.74120000  0.13590000  0.09290000  1
  C  C374  1  0.54460000  0.13550000  0.79030000  1
  C  C375  1  0.93330000  0.13350000  0.47000000  1
  C  C376  1  0.58960000  0.12860000  0.82130000  1
  C  C377  1  0.52790000  0.12600000  0.41090000  1
  C  C378  1  0.96480000  0.12420000  0.43590000  1
  C  C379  1  0.99580000  0.11950000  0.85300000  1
  C  C380  1  0.52330000  0.11860000  0.48100000  1
  C  C381  1  0.69920000  0.11730000  0.15540000  1
  C  C382  1  0.95900000  0.11370000  0.81920000  1
  C  C383  1  0.27070000  0.11220000  0.32880000  1
  C  C384  1  0.73870000  0.11210000  0.05110000  1
  C  C385  1  0.96700000  0.11180000  0.50300000  1
  C  C386  1  0.69780000  0.10340000  0.11840000  1
  C  C387  1  0.28100000  0.09650000  0.10830000  1
  C  C388  1  0.23550000  0.09360000  0.17370000  1
  C  C389  1  0.46270000  0.09220000  0.40890000  1
  C  C390  1  0.03320000  0.09130000  0.43400000  1
  C  C391  1  0.65960000  0.09080000  0.81720000  1
  C  C392  1  0.45830000  0.08740000  0.47660000  1
  C  C393  1  0.24670000  0.08450000  0.91910000  1
  C  C394  1  0.30390000  0.08340000  0.89210000  1
  C  C395  1  0.72690000  0.08230000  0.34290000  1
  C  C396  1  0.03150000  0.07640000  0.49980000  1
  C  C397  1  0.43050000  0.07450000  0.44060000  1
  C  C398  1  0.89130000  0.07220000  0.81700000  1
  C  C399  1  0.28210000  0.06770000  0.14520000  1
  C  C400  1  0.06330000  0.06770000  0.46510000  1
  C  C401  1  0.23470000  0.05670000  0.21160000  1
  C  C402  1  0.35810000  0.03660000  0.43830000  1
  C  C403  1  0.13330000  0.03060000  0.46120000  1
  C  C404  1  0.31250000  0.03050000  0.86830000  1
  C  C405  1  0.79030000  0.02820000  0.39890000  1
  C  C406  1  0.73150000  0.02670000  0.37110000  1
  C  C407  1  0.20010000  0.02650000  0.92290000  1
  O  O408  1  0.15610000  0.99920000  0.49140000  1
  O  O409  1  0.72260000  0.98840000  0.71930000  1
  O  O410  1  0.66400000  0.98600000  0.96980000  1
  O  O411  1  0.66850000  0.97390000  0.90810000  1
  O  O412  1  0.83730000  0.97090000  0.92990000  1
  O  O413  1  0.13270000  0.94910000  0.34780000  1
  O  O414  1  0.77170000  0.93660000  0.83480000  1
  O  O415  1  0.13850000  0.93560000  0.28460000  1
  O  O416  1  0.32800000  0.93500000  0.28490000  1
  O  O417  1  0.30860000  0.92870000  0.54150000  1
  O  O418  1  0.30780000  0.92620000  0.81480000  1
  O  O419  1  0.81240000  0.92390000  0.73510000  1
  O  O420  1  0.29840000  0.91630000  0.34620000  1
  O  O421  1  0.21760000  0.88840000  0.42570000  1
  O  O422  1  0.68840000  0.88430000  0.80080000  1
  O  O423  1  0.23910000  0.86420000  0.84990000  1
  O  O424  1  0.21660000  0.86300000  0.52890000  1
  O  O425  1  0.81090000  0.85920000  0.46900000  1
  O  O426  1  0.27600000  0.85660000  0.73360000  1
  O  O427  1  0.31350000  0.84030000  0.45280000  1
  O  O428  1  0.70820000  0.83050000  0.54040000  1
  O  O429  1  0.17650000  0.82950000  0.94290000  1
  O  O430  1  0.34680000  0.81380000  0.98450000  1
  O  O431  1  0.15830000  0.81060000  0.00370000  1
  O  O432  1  0.33790000  0.80780000  0.92120000  1
  O  O433  1  0.72470000  0.80700000  0.44070000  1
  O  O434  1  0.80410000  0.78370000  0.35270000  1
  O  O435  1  0.20160000  0.77340000  0.72240000  1
  O  O436  1  0.80020000  0.76760000  0.55720000  1
  O  O437  1  0.64350000  0.75380000  0.30260000  1
  O  O438  1  0.32390000  0.75200000  0.79420000  1
  O  O439  1  0.12620000  0.75130000  0.86640000  1
  O  O440  1  0.62620000  0.74870000  0.36640000  1
  O  O441  1  0.82390000  0.74800000  0.29420000  1
  O  O442  1  0.14350000  0.74620000  0.80260000  1
  O  O443  1  0.30020000  0.73240000  0.05720000  1
  O  O444  1  0.70160000  0.72660000  0.22240000  1
  O  O445  1  0.30410000  0.71630000  0.85270000  1
  O  O446  1  0.22470000  0.69300000  0.94070000  1
  O  O447  1  0.83790000  0.69220000  0.42120000  1
  O  O448  1  0.65830000  0.68940000  0.50370000  1
  O  O449  1  0.84680000  0.68620000  0.48450000  1
  O  O450  1  0.67650000  0.67050000  0.44290000  1
  O  O451  1  0.20820000  0.66950000  0.04040000  1
  O  O452  1  0.81350000  0.65970000  0.95280000  1
  O  O453  1  0.77600000  0.64340000  0.23360000  1
  O  O454  1  0.31090000  0.64080000  0.96900000  1
  O  O455  1  0.71660000  0.63700000  0.02890000  1
  O  O456  1  0.73910000  0.63580000  0.34990000  1
  O  O457  1  0.18840000  0.61570000  0.30080000  1
  O  O458  1  0.71760000  0.61160000  0.92570000  1
  O  O459  1  0.79840000  0.58370000  0.84620000  1
  O  O460  1  0.31240000  0.57610000  0.23510000  1
  O  O461  1  0.80780000  0.57380000  0.31480000  1
  O  O462  1  0.80860000  0.57130000  0.04150000  1
  O  O463  1  0.82800000  0.56500000  0.78490000  1
  O  O464  1  0.63850000  0.56440000  0.78460000  1
  O  O465  1  0.27170000  0.56340000  0.33480000  1
  O  O466  1  0.63270000  0.55090000  0.84780000  1
  O  O467  1  0.33730000  0.52910000  0.42990000  1
  O  O468  1  0.16850000  0.52610000  0.40810000  1
  O  O469  1  0.16400000  0.51400000  0.46980000  1
  O  O470  1  0.22260000  0.51160000  0.21930000  1
  O  O471  1  0.65610000  0.50080000  0.99140000  1
  O  O472  1  0.34390000  0.49920000  0.49140000  1
  O  O473  1  0.77740000  0.48840000  0.71930000  1
  O  O474  1  0.83600000  0.48600000  0.96980000  1
  O  O475  1  0.83150000  0.47390000  0.90810000  1
  O  O476  1  0.66270000  0.47090000  0.92990000  1
  O  O477  1  0.36730000  0.44910000  0.34780000  1
  O  O478  1  0.72830000  0.43660000  0.83480000  1
  O  O479  1  0.36150000  0.43560000  0.28460000  1
  O  O480  1  0.17200000  0.43500000  0.28490000  1
  O  O481  1  0.19140000  0.42870000  0.54150000  1
  O  O482  1  0.19220000  0.42620000  0.81480000  1
  O  O483  1  0.68760000  0.42390000  0.73510000  1
  O  O484  1  0.20160000  0.41630000  0.34620000  1
  O  O485  1  0.28240000  0.38840000  0.42570000  1
  O  O486  1  0.81160000  0.38430000  0.80080000  1
  O  O487  1  0.26090000  0.36420000  0.84990000  1
  O  O488  1  0.28340000  0.36300000  0.52890000  1
  O  O489  1  0.68910000  0.35920000  0.46900000  1
  O  O490  1  0.22400000  0.35660000  0.73360000  1
  O  O491  1  0.18650000  0.34030000  0.45280000  1
  O  O492  1  0.79180000  0.33050000  0.54040000  1
  O  O493  1  0.32350000  0.32950000  0.94290000  1
  O  O494  1  0.15320000  0.31380000  0.98450000  1
  O  O495  1  0.34170000  0.31060000  0.00370000  1
  O  O496  1  0.16210000  0.30780000  0.92120000  1
  O  O497  1  0.77530000  0.30700000  0.44070000  1
  O  O498  1  0.69590000  0.28370000  0.35270000  1
  O  O499  1  0.29840000  0.27340000  0.72240000  1
  O  O500  1  0.69980000  0.26760000  0.55720000  1
  O  O501  1  0.85650000  0.25380000  0.30260000  1
  O  O502  1  0.17610000  0.25200000  0.79420000  1
  O  O503  1  0.37380000  0.25130000  0.86640000  1
  O  O504  1  0.87380000  0.24870000  0.36640000  1
  O  O505  1  0.67610000  0.24800000  0.29420000  1
  O  O506  1  0.35650000  0.24620000  0.80260000  1
  O  O507  1  0.19980000  0.23240000  0.05720000  1
  O  O508  1  0.79840000  0.22660000  0.22240000  1
  O  O509  1  0.19590000  0.21630000  0.85270000  1
  O  O510  1  0.27530000  0.19300000  0.94070000  1
  O  O511  1  0.66210000  0.19220000  0.42120000  1
  O  O512  1  0.84170000  0.18940000  0.50370000  1
  O  O513  1  0.65320000  0.18620000  0.48450000  1
  O  O514  1  0.82350000  0.17050000  0.44290000  1
  O  O515  1  0.29180000  0.16950000  0.04040000  1
  O  O516  1  0.68650000  0.15970000  0.95280000  1
  O  O517  1  0.72400000  0.14340000  0.23360000  1
  O  O518  1  0.18910000  0.14080000  0.96900000  1
  O  O519  1  0.78340000  0.13700000  0.02890000  1
  O  O520  1  0.76090000  0.13580000  0.34990000  1
  O  O521  1  0.31160000  0.11570000  0.30080000  1
  O  O522  1  0.78240000  0.11160000  0.92570000  1
  O  O523  1  0.70160000  0.08370000  0.84620000  1
  O  O524  1  0.18760000  0.07610000  0.23510000  1
  O  O525  1  0.69220000  0.07380000  0.31480000  1
  O  O526  1  0.69140000  0.07130000  0.04150000  1
  O  O527  1  0.67200000  0.06500000  0.78490000  1
  O  O528  1  0.86150000  0.06440000  0.78460000  1
  O  O529  1  0.22830000  0.06340000  0.33480000  1
  O  O530  1  0.86730000  0.05090000  0.84780000  1
  O  O531  1  0.16270000  0.02910000  0.42990000  1
  O  O532  1  0.33150000  0.02610000  0.40810000  1
  O  O533  1  0.33600000  0.01400000  0.46980000  1
  O  O534  1  0.27740000  0.01160000  0.21930000  1
  O  O535  1  0.84390000  0.00080000  0.99140000  1
