# generated using pymatgen
data_Cu4MoH28C28(S2N3)2
_symmetry_space_group_name_H-M   'P 1'
_cell_length_a   9.63620000
_cell_length_b   11.46200000
_cell_length_c   19.14700000
_cell_angle_alpha   90.00000000
_cell_angle_beta   97.98000000
_cell_angle_gamma   90.00000000
_symmetry_Int_Tables_number   1
_chemical_formula_structural   Cu4MoH28C28(S2N3)2
_chemical_formula_sum   'Cu8 Mo2 H56 C56 S8 N12'
_cell_volume   2094.31016533
_cell_formula_units_Z   2
loop_
 _symmetry_equiv_pos_site_id
 _symmetry_equiv_pos_as_xyz
  1  'x, y, z'
loop_
 _atom_site_type_symbol
 _atom_site_label
 _atom_site_symmetry_multiplicity
 _atom_site_fract_x
 _atom_site_fract_y
 _atom_site_fract_z
 _atom_site_occupancy
  Cu  Cu0  1  0.04016000  0.38322000  0.11294000  1
  Cu  Cu1  1  0.04016000  0.61678000  0.61294000  1
  Cu  Cu2  1  0.27973000  0.38231000  0.28841000  1
  Cu  Cu3  1  0.27973000  0.61769000  0.78841000  1
  Cu  Cu4  1  0.72027000  0.38231000  0.21159000  1
  Cu  Cu5  1  0.72027000  0.61769000  0.71159000  1
  Cu  Cu6  1  0.95984000  0.38322000  0.38706000  1
  Cu  Cu7  1  0.95984000  0.61678000  0.88706000  1
  Mo  Mo8  1  0.00000000  0.38353000  0.25000000  1
  Mo  Mo9  1  0.00000000  0.61647000  0.75000000  1
  H  H10  1  0.00070000  0.25300000  0.52090000  1
  H  H11  1  0.00070000  0.74700000  0.02090000  1
  H  H12  1  0.07710000  0.08300000  0.92910000  1
  H  H13  1  0.07710000  0.91700000  0.42910000  1
  H  H14  1  0.19740000  0.10590000  0.45120000  1
  H  H15  1  0.19740000  0.89410000  0.95120000  1
  H  H16  1  0.21190000  0.42430000  0.88760000  1
  H  H17  1  0.21190000  0.57570000  0.38760000  1
  H  H18  1  0.29490000  0.21030000  0.14960000  1
  H  H19  1  0.29490000  0.78970000  0.64960000  1
  H  H20  1  0.30530000  0.29730000  0.46910000  1
  H  H21  1  0.30530000  0.70270000  0.96910000  1
  H  H22  1  0.30850000  0.42550000  0.56450000  1
  H  H23  1  0.30850000  0.57450000  0.06450000  1
  H  H24  1  0.31130000  0.16650000  0.56580000  1
  H  H25  1  0.31130000  0.83350000  0.06580000  1
  H  H26  1  0.31940000  0.29730000  0.97110000  1
  H  H27  1  0.31940000  0.70270000  0.47110000  1
  H  H28  1  0.33890000  0.04130000  0.43870000  1
  H  H29  1  0.33890000  0.95870000  0.93870000  1
  H  H30  1  0.37270000  0.04030000  0.09950000  1
  H  H31  1  0.37270000  0.95970000  0.59950000  1
  H  H32  1  0.42760000  0.44980000  0.14650000  1
  H  H33  1  0.42760000  0.55020000  0.64650000  1
  H  H34  1  0.44580000  0.24050000  0.44850000  1
  H  H35  1  0.44580000  0.75950000  0.94850000  1
  H  H36  1  0.45420000  0.11080000  0.54690000  1
  H  H37  1  0.45420000  0.88920000  0.04690000  1
  H  H38  1  0.54580000  0.11080000  0.95310000  1
  H  H39  1  0.54580000  0.88920000  0.45310000  1
  H  H40  1  0.55420000  0.24050000  0.05150000  1
  H  H41  1  0.55420000  0.75950000  0.55150000  1
  H  H42  1  0.57240000  0.44980000  0.35350000  1
  H  H43  1  0.57240000  0.55020000  0.85350000  1
  H  H44  1  0.62730000  0.04030000  0.40050000  1
  H  H45  1  0.62730000  0.95970000  0.90050000  1
  H  H46  1  0.66110000  0.04130000  0.06130000  1
  H  H47  1  0.66110000  0.95870000  0.56130000  1
  H  H48  1  0.68060000  0.29730000  0.52890000  1
  H  H49  1  0.68060000  0.70270000  0.02890000  1
  H  H50  1  0.68870000  0.16650000  0.93420000  1
  H  H51  1  0.68870000  0.83350000  0.43420000  1
  H  H52  1  0.69150000  0.42550000  0.93550000  1
  H  H53  1  0.69150000  0.57450000  0.43550000  1
  H  H54  1  0.69470000  0.29730000  0.03090000  1
  H  H55  1  0.69470000  0.70270000  0.53090000  1
  H  H56  1  0.70510000  0.21030000  0.35040000  1
  H  H57  1  0.70510000  0.78970000  0.85040000  1
  H  H58  1  0.78810000  0.42430000  0.61240000  1
  H  H59  1  0.78810000  0.57570000  0.11240000  1
  H  H60  1  0.80260000  0.10590000  0.04880000  1
  H  H61  1  0.80260000  0.89410000  0.54880000  1
  H  H62  1  0.92290000  0.08300000  0.57090000  1
  H  H63  1  0.92290000  0.91700000  0.07090000  1
  H  H64  1  0.99930000  0.25300000  0.97910000  1
  H  H65  1  0.99930000  0.74700000  0.47910000  1
  C  C66  1  0.07510000  0.20980000  0.00360000  1
  C  C67  1  0.07510000  0.79020000  0.50360000  1
  C  C68  1  0.12130000  0.10890000  0.97380000  1
  C  C69  1  0.12130000  0.89110000  0.47380000  1
  C  C70  1  0.23220000  0.04570000  0.00960000  1
  C  C71  1  0.23220000  0.95430000  0.50960000  1
  C  C72  1  0.25070000  0.18440000  0.10480000  1
  C  C73  1  0.25070000  0.81560000  0.60480000  1
  C  C74  1  0.28070000  0.06430000  0.47520000  1
  C  C75  1  0.28070000  0.93570000  0.97520000  1
  C  C76  1  0.29690000  0.08350000  0.07510000  1
  C  C77  1  0.29690000  0.91650000  0.57510000  1
  C  C78  1  0.31120000  0.42550000  0.89760000  1
  C  C79  1  0.31120000  0.57450000  0.39760000  1
  C  C80  1  0.36500000  0.14800000  0.52670000  1
  C  C81  1  0.36500000  0.85200000  0.02670000  1
  C  C82  1  0.37500000  0.34840000  0.94750000  1
  C  C83  1  0.37500000  0.65160000  0.44750000  1
  C  C84  1  0.39500000  0.25990000  0.48850000  1
  C  C85  1  0.39500000  0.74010000  0.98850000  1
  C  C86  1  0.40800000  0.42330000  0.57320000  1
  C  C87  1  0.40800000  0.57670000  0.07320000  1
  C  C88  1  0.44370000  0.30500000  0.25910000  1
  C  C89  1  0.44370000  0.69500000  0.75910000  1
  C  C90  1  0.48030000  0.49790000  0.62210000  1
  C  C91  1  0.48030000  0.50210000  0.12210000  1
  C  C92  1  0.48200000  0.34530000  0.53710000  1
  C  C93  1  0.48200000  0.65470000  0.03710000  1
  C  C94  1  0.51800000  0.34530000  0.96290000  1
  C  C95  1  0.51800000  0.65470000  0.46290000  1
  C  C96  1  0.51970000  0.49790000  0.87790000  1
  C  C97  1  0.51970000  0.50210000  0.37790000  1
  C  C98  1  0.55630000  0.30500000  0.24090000  1
  C  C99  1  0.55630000  0.69500000  0.74090000  1
  C  C100  1  0.59200000  0.42330000  0.92680000  1
  C  C101  1  0.59200000  0.57670000  0.42680000  1
  C  C102  1  0.60500000  0.25990000  0.01150000  1
  C  C103  1  0.60500000  0.74010000  0.51150000  1
  C  C104  1  0.62500000  0.34840000  0.55250000  1
  C  C105  1  0.62500000  0.65160000  0.05250000  1
  C  C106  1  0.63500000  0.14800000  0.97330000  1
  C  C107  1  0.63500000  0.85200000  0.47330000  1
  C  C108  1  0.68880000  0.42550000  0.60240000  1
  C  C109  1  0.68880000  0.57450000  0.10240000  1
  C  C110  1  0.70310000  0.08350000  0.42490000  1
  C  C111  1  0.70310000  0.91650000  0.92490000  1
  C  C112  1  0.71930000  0.06430000  0.02480000  1
  C  C113  1  0.71930000  0.93570000  0.52480000  1
  C  C114  1  0.74930000  0.18440000  0.39520000  1
  C  C115  1  0.74930000  0.81560000  0.89520000  1
  C  C116  1  0.76780000  0.04570000  0.49040000  1
  C  C117  1  0.76780000  0.95430000  0.99040000  1
  C  C118  1  0.87870000  0.10890000  0.52620000  1
  C  C119  1  0.87870000  0.89110000  0.02620000  1
  C  C120  1  0.92490000  0.20980000  0.49640000  1
  C  C121  1  0.92490000  0.79020000  0.99640000  1
  S  S122  1  0.11810000  0.27450000  0.33439000  1
  S  S123  1  0.11810000  0.72550000  0.83439000  1
  S  S124  1  0.15380000  0.49340000  0.20228000  1
  S  S125  1  0.15380000  0.50660000  0.70228000  1
  S  S126  1  0.84620000  0.49340000  0.29772000  1
  S  S127  1  0.84620000  0.50660000  0.79772000  1
  S  S128  1  0.88190000  0.27450000  0.16561000  1
  S  S129  1  0.88190000  0.72550000  0.66561000  1
  N  N130  1  0.00540000  0.47460000  0.02580000  1
  N  N131  1  0.00540000  0.52540000  0.52580000  1
  N  N132  1  0.13980000  0.24760000  0.06910000  1
  N  N133  1  0.13980000  0.75240000  0.56910000  1
  N  N134  1  0.37960000  0.49930000  0.36300000  1
  N  N135  1  0.37960000  0.50070000  0.86300000  1
  N  N136  1  0.62040000  0.49930000  0.13700000  1
  N  N137  1  0.62040000  0.50070000  0.63700000  1
  N  N138  1  0.86020000  0.24760000  0.43090000  1
  N  N139  1  0.86020000  0.75240000  0.93090000  1
  N  N140  1  0.99460000  0.47460000  0.47420000  1
  N  N141  1  0.99460000  0.52540000  0.97420000  1
