# generated using pymatgen
data_CuH5C12N3O4
_symmetry_space_group_name_H-M   'P 1'
_cell_length_a   30.79910000
_cell_length_b   30.79910000
_cell_length_c   31.24578962
_cell_angle_alpha   119.52791634
_cell_angle_beta   119.52861386
_cell_angle_gamma   89.99990000
_symmetry_Int_Tables_number   1
_chemical_formula_structural   CuH5C12N3O4
_chemical_formula_sum   'Cu24 H120 C288 N72 O96'
_cell_volume   21253.50778743
_cell_formula_units_Z   24
loop_
 _symmetry_equiv_pos_site_id
 _symmetry_equiv_pos_as_xyz
  1  'x, y, z'
loop_
 _atom_site_type_symbol
 _atom_site_label
 _atom_site_symmetry_multiplicity
 _atom_site_fract_x
 _atom_site_fract_y
 _atom_site_fract_z
 _atom_site_occupancy
  Cu  Cu0  1  0.19666000  0.12822000  0.66134000  1
  Cu  Cu1  1  0.56487000  0.16554000  0.00000000  1
  Cu  Cu2  1  0.53313000  0.19667000  0.66135000  1
  Cu  Cu3  1  0.27261000  0.22120000  0.74353000  1
  Cu  Cu4  1  0.54881000  0.25059000  0.00000000  1
  Cu  Cu5  1  0.52234000  0.27262000  0.74354000  1
  Cu  Cu6  1  0.16554000  0.43513000  0.00000000  1
  Cu  Cu7  1  0.25059000  0.45119000  0.00000000  1
  Cu  Cu8  1  0.12822000  0.46468000  0.66134000  1
  Cu  Cu9  1  0.53532000  0.46688000  0.33865000  1
  Cu  Cu10  1  0.22120000  0.47092000  0.74354000  1
  Cu  Cu11  1  0.52907000  0.47766000  0.25645000  1
  Cu  Cu12  1  0.47093000  0.52234000  0.74355000  1
  Cu  Cu13  1  0.77880000  0.52908000  0.25646000  1
  Cu  Cu14  1  0.46467000  0.53312000  0.66134000  1
  Cu  Cu15  1  0.87178000  0.53532000  0.33866000  1
  Cu  Cu16  1  0.74941000  0.54881000  1.00000000  1
  Cu  Cu17  1  0.83446000  0.56487000  0.00000000  1
  Cu  Cu18  1  0.47766000  0.72738000  0.25646000  1
  Cu  Cu19  1  0.45119000  0.74941000  0.00000000  1
  Cu  Cu20  1  0.72739000  0.77880000  0.25647000  1
  Cu  Cu21  1  0.46687000  0.80333000  0.33865000  1
  Cu  Cu22  1  0.43513000  0.83446000  1.00000000  1
  Cu  Cu23  1  0.80333000  0.87178000  0.33865000  1
  H  H24  1  0.55810000  0.00310000  0.79360000  1
  H  H25  1  0.79460000  0.00690000  0.55660000  1
  H  H26  1  0.77550000  0.01780000  0.26380000  1
  H  H27  1  0.26030000  0.05440000  0.75380000  1
  H  H28  1  0.24690000  0.06030000  0.54260000  1
  H  H29  1  0.40100000  0.06420000  0.88120000  1
  H  H30  1  0.86910000  0.07270000  0.65280000  1
  H  H31  1  0.43800000  0.07520000  0.20960000  1
  H  H32  1  0.85230000  0.08480000  0.31600000  1
  H  H33  1  0.37560000  0.08690000  0.54140000  1
  H  H34  1  0.58960000  0.09420000  0.86320000  1
  H  H35  1  0.57300000  0.09990000  0.72860000  1
  H  H36  1  0.41990000  0.13090000  0.34720000  1
  H  H37  1  0.77160000  0.13440000  0.20960000  1
  H  H38  1  0.76880000  0.14770000  0.68400000  1
  H  H39  1  0.09990000  0.15560000  0.72860000  1
  H  H40  1  0.08690000  0.16580000  0.54140000  1
  H  H41  1  0.38990000  0.17920000  0.85160000  1
  H  H42  1  0.51980000  0.18300000  0.11880000  1
  H  H43  1  0.36960000  0.19580000  0.67880000  1
  H  H44  1  0.45030000  0.20540000  0.44340000  1
  H  H45  1  0.76450000  0.20950000  0.20640000  1
  H  H46  1  0.92730000  0.21630000  0.34720000  1
  H  H47  1  0.56380000  0.22080000  0.85740000  1
  H  H48  1  0.75400000  0.22450000  0.73620000  1
  H  H49  1  0.92480000  0.22840000  0.79040000  1
  H  H50  1  0.72640000  0.23100000  0.13680000  1
  H  H51  1  0.46370000  0.23120000  0.31600000  1
  H  H52  1  0.00310000  0.23550000  0.79360000  1
  H  H53  1  0.99310000  0.23800000  0.44340000  1
  H  H54  1  0.48830000  0.24600000  0.26380000  1
  H  H55  1  0.48230000  0.24690000  0.54260000  1
  H  H56  1  0.69940000  0.26030000  0.75380000  1
  H  H57  1  0.09420000  0.27360000  0.86320000  1
  H  H58  1  0.22080000  0.29360000  0.85740000  1
  H  H59  1  0.06030000  0.29570000  0.54260000  1
  H  H60  1  0.50650000  0.30060000  0.24620000  1
  H  H61  1  0.19580000  0.30920000  0.67880000  1
  H  H62  1  0.53830000  0.32760000  0.14840000  1
  H  H63  1  0.70640000  0.36340000  0.14260000  1
  H  H64  1  0.48300000  0.36960000  0.67880000  1
  H  H65  1  0.84440000  0.37130000  0.27140000  1
  H  H66  1  0.45450000  0.37560000  0.54140000  1
  H  H67  1  0.67240000  0.38990000  0.85160000  1
  H  H68  1  0.81700000  0.40100000  0.88120000  1
  H  H69  1  0.23100000  0.41040000  0.13680000  1
  H  H70  1  0.21630000  0.41990000  0.34720000  1
  H  H71  1  0.37130000  0.42700000  0.27140000  1
  H  H72  1  0.36340000  0.43620000  0.14260000  1
  H  H73  1  0.13440000  0.43800000  0.20960000  1
  H  H74  1  0.20950000  0.44190000  0.20640000  1
  H  H75  1  0.23800000  0.45030000  0.44340000  1
  H  H76  1  0.16580000  0.45450000  0.54140000  1
  H  H77  1  0.17920000  0.46170000  0.85160000  1
  H  H78  1  0.08480000  0.46370000  0.31600000  1
  H  H79  1  0.06420000  0.48020000  0.88120000  1
  H  H80  1  0.29570000  0.48230000  0.54260000  1
  H  H81  1  0.30920000  0.48300000  0.67880000  1
  H  H82  1  0.01780000  0.48830000  0.26380000  1
  H  H83  1  0.05440000  0.49350000  0.75380000  1
  H  H84  1  0.94560000  0.50650000  0.24620000  1
  H  H85  1  0.98220000  0.51170000  0.73620000  1
  H  H86  1  0.69080000  0.51700000  0.32120000  1
  H  H87  1  0.70430000  0.51770000  0.45740000  1
  H  H88  1  0.93580000  0.51980000  0.11880000  1
  H  H89  1  0.91520000  0.53630000  0.68400000  1
  H  H90  1  0.82080000  0.53830000  0.14840000  1
  H  H91  1  0.83420000  0.54550000  0.45860000  1
  H  H92  1  0.76200000  0.54970000  0.55660000  1
  H  H93  1  0.79050000  0.55810000  0.79360000  1
  H  H94  1  0.86560000  0.56200000  0.79040000  1
  H  H95  1  0.63660000  0.56380000  0.85740000  1
  H  H96  1  0.62870000  0.57300000  0.72860000  1
  H  H97  1  0.78370000  0.58010000  0.65280000  1
  H  H98  1  0.76900000  0.58960000  0.86320000  1
  H  H99  1  0.18300000  0.59900000  0.11880000  1
  H  H100  1  0.32760000  0.61010000  0.14840000  1
  H  H101  1  0.54550000  0.62440000  0.45860000  1
  H  H102  1  0.15560000  0.62870000  0.72860000  1
  H  H103  1  0.51700000  0.63040000  0.32120000  1
  H  H104  1  0.29360000  0.63660000  0.85740000  1
  H  H105  1  0.46170000  0.67240000  0.85160000  1
  H  H106  1  0.80420000  0.69080000  0.32120000  1
  H  H107  1  0.49350000  0.69940000  0.75380000  1
  H  H108  1  0.93970000  0.70430000  0.45740000  1
  H  H109  1  0.77920000  0.70640000  0.14260000  1
  H  H110  1  0.90580000  0.72640000  0.13680000  1
  H  H111  1  0.30060000  0.73970000  0.24620000  1
  H  H112  1  0.51770000  0.75310000  0.45740000  1
  H  H113  1  0.51170000  0.75400000  0.73620000  1
  H  H114  1  0.00690000  0.76200000  0.55660000  1
  H  H115  1  0.99690000  0.76450000  0.20640000  1
  H  H116  1  0.53630000  0.76880000  0.68400000  1
  H  H117  1  0.27360000  0.76900000  0.86320000  1
  H  H118  1  0.07520000  0.77160000  0.20960000  1
  H  H119  1  0.24600000  0.77550000  0.26380000  1
  H  H120  1  0.43620000  0.77920000  0.14260000  1
  H  H121  1  0.07270000  0.78370000  0.65280000  1
  H  H122  1  0.23550000  0.79050000  0.79360000  1
  H  H123  1  0.54970000  0.79460000  0.55660000  1
  H  H124  1  0.63040000  0.80420000  0.32120000  1
  H  H125  1  0.48020000  0.81700000  0.88120000  1
  H  H126  1  0.61010000  0.82080000  0.14840000  1
  H  H127  1  0.91310000  0.83420000  0.45860000  1
  H  H128  1  0.90010000  0.84440000  0.27140000  1
  H  H129  1  0.23120000  0.85230000  0.31600000  1
  H  H130  1  0.22840000  0.86560000  0.79040000  1
  H  H131  1  0.58010000  0.86910000  0.65280000  1
  H  H132  1  0.42700000  0.90010000  0.27140000  1
  H  H133  1  0.41040000  0.90580000  0.13680000  1
  H  H134  1  0.62440000  0.91310000  0.45860000  1
  H  H135  1  0.14770000  0.91520000  0.68400000  1
  H  H136  1  0.56200000  0.92480000  0.79040000  1
  H  H137  1  0.13090000  0.92730000  0.34720000  1
  H  H138  1  0.59900000  0.93580000  0.11880000  1
  H  H139  1  0.75310000  0.93970000  0.45740000  1
  H  H140  1  0.73970000  0.94560000  0.24620000  1
  H  H141  1  0.22450000  0.98220000  0.73620000  1
  H  H142  1  0.20540000  0.99310000  0.44340000  1
  H  H143  1  0.44190000  0.99690000  0.20640000  1
  C  C144  1  0.57080000  0.00064000  0.77054000  1
  C  C145  1  0.76628000  0.01295000  0.56074000  1
  C  C146  1  0.74955000  0.02297000  0.23516000  1
  C  C147  1  0.42083000  0.04149000  0.26406000  1
  C  C148  1  0.32798000  0.05256000  0.81540000  1
  C  C149  1  0.76809000  0.05629000  0.60698000  1
  C  C150  1  0.75789000  0.06059000  0.22758000  1
  C  C151  1  0.30743000  0.06658000  0.53380000  1
  C  C152  1  0.29696000  0.07236000  0.78354000  1
  C  C153  1  0.38070000  0.07830000  0.85972000  1
  C  C154  1  0.28066000  0.08232000  0.56078000  1
  C  C155  1  0.58082000  0.08935000  0.79078000  1
  C  C156  1  0.43035000  0.09599000  0.27810000  1
  C  C157  1  0.35751000  0.09792000  0.56038000  1
  C  C158  1  0.86257000  0.10395000  0.67370000  1
  C  C159  1  0.44110000  0.10412000  0.24380000  1
  C  C160  1  0.80396000  0.10415000  0.26112000  1
  C  C161  1  0.81099000  0.10436000  0.65792000  1
  C  C162  1  0.85055000  0.11055000  0.30730000  1
  C  C163  1  0.58289000  0.11184000  0.84388000  1
  C  C164  1  0.57379000  0.11530000  0.76402000  1
  C  C165  1  0.32139000  0.11937000  0.79664000  1
  C  C166  1  0.40364000  0.12540000  0.87246000  1
  C  C167  1  0.30365000  0.13013000  0.61406000  1
  C  C168  1  0.43025000  0.13743000  0.32630000  1
  C  C169  1  0.28937000  0.13909000  0.76108000  1
  C  C170  1  0.80270000  0.13968000  0.24380000  1
  C  C171  1  0.38021000  0.14555000  0.61518000  1
  C  C172  1  0.37397000  0.14631000  0.84168000  1
  C  C173  1  0.27658000  0.14754000  0.64592000  1
  C  C174  1  0.80325000  0.14945000  0.69270000  1
  C  C175  1  0.90401000  0.15225000  0.72190000  1
  C  C176  1  0.89564000  0.15307000  0.34208000  1
  C  C177  1  0.46090000  0.15537000  0.92128000  1
  C  C178  1  0.95851000  0.15677000  0.73594000  1
  C  C179  1  0.45716000  0.15697000  0.26112000  1
  C  C180  1  0.57498000  0.16012000  0.86698000  1
  C  C181  1  0.94371000  0.16111000  0.39302000  1
  C  C182  1  0.35398000  0.16241000  0.64176000  1
  C  C183  1  0.56782000  0.16476000  0.78968000  1
  C  C184  1  0.46969000  0.16699000  0.22758000  1
  C  C185  1  0.43460000  0.17934000  0.64648000  1
  C  C186  1  0.57035000  0.18032000  0.91904000  1
  C  C187  1  0.84775000  0.18211000  0.27810000  1
  C  C188  1  0.56819000  0.18712000  0.84058000  1
  C  C189  1  0.89605000  0.18887000  0.32630000  1
  C  C190  1  0.44644000  0.18901000  0.34208000  1
  C  C191  1  0.11530000  0.19023000  0.76402000  1
  C  C192  1  0.55556000  0.19205000  0.75842000  1
  C  C193  1  0.84303000  0.19604000  0.73888000  1
  C  C194  1  0.45675000  0.19675000  0.30730000  1
  C  C195  1  0.89588000  0.19730000  0.75620000  1
  C  C196  1  0.00064000  0.19974000  0.77054000  1
  C  C197  1  0.19205000  0.20286000  0.75842000  1
  C  C198  1  0.09792000  0.20287000  0.56038000  1
  C  C199  1  0.98705000  0.20554000  0.43926000  1
  C  C200  1  0.08935000  0.20996000  0.79078000  1
  C  C201  1  0.17934000  0.21188000  0.64648000  1
  C  C202  1  0.48561000  0.21219000  0.23516000  1
  C  C203  1  0.52098000  0.21858000  0.14028000  1
  C  C204  1  0.16476000  0.22186000  0.78968000  1
  C  C205  1  0.84323000  0.22257000  0.26406000  1
  C  C206  1  0.06658000  0.22637000  0.53380000  1
  C  C207  1  0.80026000  0.23010000  0.22946000  1
  C  C208  1  0.44931000  0.23191000  0.39302000  1
  C  C209  1  0.45221000  0.23372000  0.43926000  1
  C  C210  1  0.53962000  0.23409000  0.07872000  1
  C  C211  1  0.14555000  0.23497000  0.61518000  1
  C  C212  1  0.51258000  0.23716000  0.18460000  1
  C  C213  1  0.83301000  0.24211000  0.77242000  1
  C  C214  1  0.78781000  0.25045000  0.76484000  1
  C  C215  1  0.53118000  0.25294000  0.12754000  1
  C  C216  1  0.11184000  0.26099000  0.84388000  1
  C  C217  1  0.65131000  0.26128000  0.08096000  1
  C  C218  1  0.73901000  0.26796000  0.15612000  1
  C  C219  1  0.18712000  0.27239000  0.84058000  1
  C  C220  1  0.49838000  0.27658000  0.64592000  1
  C  C221  1  0.08232000  0.28012000  0.56078000  1
  C  C222  1  0.47846000  0.28066000  0.56078000  1
  C  C223  1  0.16241000  0.28778000  0.64176000  1
  C  C224  1  0.51342000  0.28882000  0.21646000  1
  C  C225  1  0.62199000  0.28937000  0.76108000  1
  C  C226  1  0.16012000  0.29200000  0.86698000  1
  C  C227  1  0.70800000  0.29314000  0.13302000  1
  C  C228  1  0.71118000  0.29696000  0.78354000  1
  C  C229  1  0.79004000  0.29857000  0.20922000  1
  C  C230  1  0.48393000  0.30365000  0.61406000  1
  C  C231  1  0.53229000  0.30463000  0.15832000  1
  C  C232  1  0.46722000  0.30743000  0.53380000  1
  C  C233  1  0.13013000  0.31041000  0.61406000  1
  C  C234  1  0.67727000  0.32139000  0.79664000  1
  C  C235  1  0.52475000  0.32273000  0.20336000  1
  C  C236  1  0.76284000  0.32798000  0.81540000  1
  C  C237  1  0.72761000  0.34654000  0.15942000  1
  C  C238  1  0.18032000  0.34869000  0.91904000  1
  C  C239  1  0.80977000  0.35128000  0.23598000  1
  C  C240  1  0.47935000  0.35398000  0.64176000  1
  C  C241  1  0.46246000  0.35751000  0.56038000  1
  C  C242  1  0.14754000  0.36934000  0.64592000  1
  C  C243  1  0.69537000  0.37397000  0.84168000  1
  C  C244  1  0.77814000  0.37508000  0.21032000  1
  C  C245  1  0.52829000  0.37801000  0.23892000  1
  C  C246  1  0.46963000  0.38021000  0.61518000  1
  C  C247  1  0.78142000  0.38070000  0.85972000  1
  C  C248  1  0.74706000  0.40364000  0.87246000  1
  C  C249  1  0.26796000  0.41711000  0.15612000  1
  C  C250  1  0.29857000  0.41918000  0.20922000  1
  C  C251  1  0.22257000  0.42083000  0.26406000  1
  C  C252  1  0.29314000  0.42502000  0.13302000  1
  C  C253  1  0.35128000  0.42621000  0.23598000  1
  C  C254  1  0.23010000  0.42920000  0.22946000  1
  C  C255  1  0.26128000  0.42965000  0.08096000  1
  C  C256  1  0.18887000  0.43025000  0.32630000  1
  C  C257  1  0.18211000  0.43035000  0.27810000  1
  C  C258  1  0.34654000  0.43181000  0.15942000  1
  C  C259  1  0.37508000  0.43218000  0.21032000  1
  C  C260  1  0.79714000  0.43363000  0.24158000  1
  C  C261  1  0.46714000  0.43460000  0.64648000  1
  C  C262  1  0.13968000  0.44110000  0.24380000  1
  C  C263  1  0.43363000  0.44444000  0.24158000  1
  C  C264  1  0.15307000  0.44644000  0.34208000  1
  C  C265  1  0.16111000  0.44931000  0.39302000  1
  C  C266  1  0.20554000  0.45221000  0.43926000  1
  C  C267  1  0.11055000  0.45675000  0.30730000  1
  C  C268  1  0.10415000  0.45716000  0.26112000  1
  C  C269  1  0.15537000  0.46038000  0.92128000  1
  C  C270  1  0.76591000  0.46090000  0.92128000  1
  C  C271  1  0.20287000  0.46246000  0.56038000  1
  C  C272  1  0.21188000  0.46714000  0.64648000  1
  C  C273  1  0.22637000  0.46722000  0.53380000  1
  C  C274  1  0.14631000  0.46771000  0.84168000  1
  C  C275  1  0.12540000  0.46882000  0.87246000  1
  C  C276  1  0.23497000  0.46963000  0.61518000  1
  C  C277  1  0.06059000  0.46969000  0.22758000  1
  C  C278  1  0.13909000  0.47171000  0.76108000  1
  C  C279  1  0.11937000  0.47525000  0.79664000  1
  C  C280  1  0.28012000  0.47846000  0.56078000  1
  C  C281  1  0.07830000  0.47902000  0.85972000  1
  C  C282  1  0.28778000  0.47935000  0.64176000  1
  C  C283  1  0.31041000  0.48393000  0.61406000  1
  C  C284  1  0.02297000  0.48561000  0.23516000  1
  C  C285  1  0.07236000  0.48658000  0.78354000  1
  C  C286  1  0.05256000  0.48742000  0.81540000  1
  C  C287  1  0.36934000  0.49838000  0.64592000  1
  C  C288  1  0.63066000  0.50162000  0.35408000  1
  C  C289  1  0.94744000  0.51258000  0.18460000  1
  C  C290  1  0.92764000  0.51342000  0.21646000  1
  C  C291  1  0.97703000  0.51439000  0.76484000  1
  C  C292  1  0.68959000  0.51607000  0.38594000  1
  C  C293  1  0.71222000  0.52065000  0.35824000  1
  C  C294  1  0.92170000  0.52098000  0.14028000  1
  C  C295  1  0.71988000  0.52154000  0.43922000  1
  C  C296  1  0.88063000  0.52475000  0.20336000  1
  C  C297  1  0.86091000  0.52829000  0.23892000  1
  C  C298  1  0.93941000  0.53031000  0.77242000  1
  C  C299  1  0.76503000  0.53037000  0.38482000  1
  C  C300  1  0.87460000  0.53118000  0.12754000  1
  C  C301  1  0.85369000  0.53229000  0.15832000  1
  C  C302  1  0.77363000  0.53278000  0.46620000  1
  C  C303  1  0.78812000  0.53286000  0.35352000  1
  C  C304  1  0.79713000  0.53754000  0.43962000  1
  C  C305  1  0.23409000  0.53910000  0.07872000  1
  C  C306  1  0.84463000  0.53962000  0.07872000  1
  C  C307  1  0.89585000  0.54284000  0.73888000  1
  C  C308  1  0.88945000  0.54325000  0.69270000  1
  C  C309  1  0.79446000  0.54779000  0.56074000  1
  C  C310  1  0.83889000  0.55069000  0.60698000  1
  C  C311  1  0.84693000  0.55356000  0.65792000  1
  C  C312  1  0.56637000  0.55556000  0.75842000  1
  C  C313  1  0.86032000  0.55890000  0.75620000  1
  C  C314  1  0.53286000  0.56540000  0.35352000  1
  C  C315  1  0.20286000  0.56637000  0.75842000  1
  C  C316  1  0.62492000  0.56782000  0.78968000  1
  C  C317  1  0.65346000  0.56819000  0.84058000  1
  C  C318  1  0.81789000  0.56965000  0.72190000  1
  C  C319  1  0.81113000  0.56975000  0.67370000  1
  C  C320  1  0.73872000  0.57035000  0.91904000  1
  C  C321  1  0.76990000  0.57080000  0.77054000  1
  C  C322  1  0.64872000  0.57379000  0.76402000  1
  C  C323  1  0.70686000  0.57498000  0.86698000  1
  C  C324  1  0.77743000  0.57917000  0.73594000  1
  C  C325  1  0.70143000  0.58082000  0.79078000  1
  C  C326  1  0.73204000  0.58289000  0.84388000  1
  C  C327  1  0.25294000  0.59636000  0.12754000  1
  C  C328  1  0.21858000  0.61930000  0.14028000  1
  C  C329  1  0.53037000  0.61979000  0.38482000  1
  C  C330  1  0.47171000  0.62199000  0.76108000  1
  C  C331  1  0.22186000  0.62492000  0.78968000  1
  C  C332  1  0.30463000  0.62603000  0.15832000  1
  C  C333  1  0.85246000  0.63066000  0.35408000  1
  C  C334  1  0.53754000  0.64249000  0.43962000  1
  C  C335  1  0.52065000  0.64602000  0.35824000  1
  C  C336  1  0.19023000  0.64872000  0.76402000  1
  C  C337  1  0.81968000  0.65131000  0.08096000  1
  C  C338  1  0.27239000  0.65346000  0.84058000  1
  C  C339  1  0.23716000  0.67202000  0.18460000  1
  C  C340  1  0.47525000  0.67727000  0.79664000  1
  C  C341  1  0.32273000  0.67861000  0.20336000  1
  C  C342  1  0.86987000  0.68959000  0.38594000  1
  C  C343  1  0.53278000  0.69257000  0.46620000  1
  C  C344  1  0.46771000  0.69537000  0.84168000  1
  C  C345  1  0.51607000  0.69635000  0.38594000  1
  C  C346  1  0.20996000  0.70143000  0.79078000  1
  C  C347  1  0.28882000  0.70304000  0.21646000  1
  C  C348  1  0.29200000  0.70686000  0.86698000  1
  C  C349  1  0.83988000  0.70800000  0.13302000  1
  C  C350  1  0.37801000  0.71063000  0.23892000  1
  C  C351  1  0.48658000  0.71118000  0.78354000  1
  C  C352  1  0.83759000  0.71222000  0.35824000  1
  C  C353  1  0.52154000  0.71934000  0.43922000  1
  C  C354  1  0.91768000  0.71988000  0.43922000  1
  C  C355  1  0.50162000  0.72342000  0.35408000  1
  C  C356  1  0.81288000  0.72761000  0.15942000  1
  C  C357  1  0.26099000  0.73204000  0.84388000  1
  C  C358  1  0.34869000  0.73872000  0.91904000  1
  C  C359  1  0.88816000  0.73901000  0.15612000  1
  C  C360  1  0.46882000  0.74706000  0.87246000  1
  C  C361  1  0.21219000  0.74955000  0.23516000  1
  C  C362  1  0.16699000  0.75789000  0.22758000  1
  C  C363  1  0.48742000  0.76284000  0.81540000  1
  C  C364  1  0.85445000  0.76503000  0.38482000  1
  C  C365  1  0.46038000  0.76591000  0.92128000  1
  C  C366  1  0.54779000  0.76628000  0.56074000  1
  C  C367  1  0.55069000  0.76809000  0.60698000  1
  C  C368  1  0.19974000  0.76990000  0.77054000  1
  C  C369  1  0.93342000  0.77363000  0.46620000  1
  C  C370  1  0.15677000  0.77743000  0.73594000  1
  C  C371  1  0.83524000  0.77814000  0.21032000  1
  C  C372  1  0.47902000  0.78142000  0.85972000  1
  C  C373  1  0.51439000  0.78781000  0.76484000  1
  C  C374  1  0.82066000  0.78812000  0.35352000  1
  C  C375  1  0.91065000  0.79004000  0.20922000  1
  C  C376  1  0.01295000  0.79446000  0.56074000  1
  C  C377  1  0.90208000  0.79713000  0.43962000  1
  C  C378  1  0.80795000  0.79714000  0.24158000  1
  C  C379  1  0.99936000  0.80026000  0.22946000  1
  C  C380  1  0.10412000  0.80270000  0.24380000  1
  C  C381  1  0.54325000  0.80325000  0.69270000  1
  C  C382  1  0.15697000  0.80396000  0.26112000  1
  C  C383  1  0.44444000  0.80795000  0.24158000  1
  C  C384  1  0.88470000  0.80977000  0.23598000  1
  C  C385  1  0.55356000  0.81099000  0.65792000  1
  C  C386  1  0.10395000  0.81113000  0.67370000  1
  C  C387  1  0.43181000  0.81288000  0.15942000  1
  C  C388  1  0.15225000  0.81789000  0.72190000  1
  C  C389  1  0.42965000  0.81968000  0.08096000  1
  C  C390  1  0.56540000  0.82066000  0.35352000  1
  C  C391  1  0.53031000  0.83301000  0.77242000  1
  C  C392  1  0.43218000  0.83524000  0.21032000  1
  C  C393  1  0.64602000  0.83759000  0.35824000  1
  C  C394  1  0.05629000  0.83889000  0.60698000  1
  C  C395  1  0.42502000  0.83988000  0.13302000  1
  C  C396  1  0.54284000  0.84303000  0.73888000  1
  C  C397  1  0.04149000  0.84323000  0.26406000  1
  C  C398  1  0.53910000  0.84463000  0.07872000  1
  C  C399  1  0.10436000  0.84693000  0.65792000  1
  C  C400  1  0.09599000  0.84775000  0.27810000  1
  C  C401  1  0.19675000  0.85055000  0.30730000  1
  C  C402  1  0.72342000  0.85246000  0.35408000  1
  C  C403  1  0.62603000  0.85369000  0.15832000  1
  C  C404  1  0.61979000  0.85445000  0.38482000  1
  C  C405  1  0.19730000  0.86032000  0.75620000  1
  C  C406  1  0.71063000  0.86091000  0.23892000  1
  C  C407  1  0.56975000  0.86257000  0.67370000  1
  C  C408  1  0.69635000  0.86987000  0.38594000  1
  C  C409  1  0.59636000  0.87460000  0.12754000  1
  C  C410  1  0.67861000  0.88063000  0.20336000  1
  C  C411  1  0.42621000  0.88470000  0.23598000  1
  C  C412  1  0.41711000  0.88816000  0.15612000  1
  C  C413  1  0.14945000  0.88945000  0.69270000  1
  C  C414  1  0.18901000  0.89564000  0.34208000  1
  C  C415  1  0.19604000  0.89585000  0.73888000  1
  C  C416  1  0.55890000  0.89588000  0.75620000  1
  C  C417  1  0.13743000  0.89605000  0.32630000  1
  C  C418  1  0.64249000  0.90208000  0.43962000  1
  C  C419  1  0.56965000  0.90401000  0.72190000  1
  C  C420  1  0.41918000  0.91065000  0.20922000  1
  C  C421  1  0.71934000  0.91768000  0.43922000  1
  C  C422  1  0.61930000  0.92170000  0.14028000  1
  C  C423  1  0.70304000  0.92764000  0.21646000  1
  C  C424  1  0.69257000  0.93342000  0.46620000  1
  C  C425  1  0.24211000  0.93941000  0.77242000  1
  C  C426  1  0.23191000  0.94371000  0.39302000  1
  C  C427  1  0.67202000  0.94744000  0.18460000  1
  C  C428  1  0.57917000  0.95851000  0.73594000  1
  C  C429  1  0.25045000  0.97703000  0.76484000  1
  C  C430  1  0.23372000  0.98705000  0.43926000  1
  C  C431  1  0.42920000  0.99936000  0.22946000  1
  N  N432  1  0.68766000  0.00046000  0.54692000  1
  N  N433  1  0.30018000  0.00542000  0.80350000  1
  N  N434  1  0.67300000  0.01394000  0.16500000  1
  N  N435  1  0.28371000  0.01887000  0.47706000  1
  N  N436  1  0.60305000  0.02192000  0.73034000  1
  N  N437  1  0.40028000  0.02795000  0.28810000  1
  N  N438  1  0.58419000  0.03836000  0.76530000  1
  N  N439  1  0.71929000  0.04834000  0.59768000  1
  N  N440  1  0.71003000  0.05279000  0.18106000  1
  N  N441  1  0.97205000  0.11218000  0.71190000  1
  N  N442  1  0.95166000  0.12161000  0.40232000  1
  N  N443  1  0.02192000  0.12729000  0.73034000  1
  N  N444  1  0.47103000  0.12827000  0.18106000  1
  N  N445  1  0.99954000  0.14074000  0.45308000  1
  N  N446  1  0.49200000  0.15106000  0.16500000  1
  N  N447  1  0.03836000  0.18111000  0.76530000  1
  N  N448  1  0.01887000  0.19335000  0.47706000  1
  N  N449  1  0.49668000  0.20192000  0.19650000  1
  N  N450  1  0.88782000  0.26015000  0.28810000  1
  N  N451  1  0.81889000  0.27306000  0.23470000  1
  N  N452  1  0.45066000  0.28071000  0.40232000  1
  N  N453  1  0.45819000  0.28371000  0.47706000  1
  N  N454  1  0.87173000  0.28997000  0.81894000  1
  N  N455  1  0.87271000  0.29158000  0.26966000  1
  N  N456  1  0.79808000  0.30018000  0.80350000  1
  N  N457  1  0.45354000  0.31234000  0.45308000  1
  N  N458  1  0.84894000  0.32700000  0.83500000  1
  N  N459  1  0.29158000  0.39695000  0.26966000  1
  N  N460  1  0.26015000  0.40028000  0.28810000  1
  N  N461  1  0.27306000  0.41581000  0.23470000  1
  N  N462  1  0.12161000  0.45066000  0.40232000  1
  N  N463  1  0.14074000  0.45354000  0.45308000  1
  N  N464  1  0.19335000  0.45819000  0.47706000  1
  N  N465  1  0.05279000  0.47103000  0.18106000  1
  N  N466  1  0.01394000  0.49200000  0.16500000  1
  N  N467  1  0.99458000  0.49668000  0.19650000  1
  N  N468  1  0.00542000  0.50332000  0.80350000  1
  N  N469  1  0.98606000  0.50800000  0.83500000  1
  N  N470  1  0.94721000  0.52897000  0.81894000  1
  N  N471  1  0.80665000  0.54181000  0.52294000  1
  N  N472  1  0.85926000  0.54646000  0.54692000  1
  N  N473  1  0.87839000  0.54934000  0.59768000  1
  N  N474  1  0.72694000  0.58419000  0.76530000  1
  N  N475  1  0.73985000  0.59972000  0.71190000  1
  N  N476  1  0.70842000  0.60305000  0.73034000  1
  N  N477  1  0.15106000  0.67300000  0.16500000  1
  N  N478  1  0.54646000  0.68766000  0.54692000  1
  N  N479  1  0.20192000  0.69982000  0.19650000  1
  N  N480  1  0.12729000  0.70842000  0.73034000  1
  N  N481  1  0.12827000  0.71003000  0.18106000  1
  N  N482  1  0.54181000  0.71629000  0.52294000  1
  N  N483  1  0.54934000  0.71929000  0.59768000  1
  N  N484  1  0.18111000  0.72694000  0.76530000  1
  N  N485  1  0.11218000  0.73985000  0.71190000  1
  N  N486  1  0.50332000  0.79808000  0.80350000  1
  N  N487  1  0.98113000  0.80665000  0.52294000  1
  N  N488  1  0.96164000  0.81889000  0.23470000  1
  N  N489  1  0.50800000  0.84894000  0.83500000  1
  N  N490  1  0.00046000  0.85926000  0.54692000  1
  N  N491  1  0.52897000  0.87173000  0.81894000  1
  N  N492  1  0.97808000  0.87271000  0.26966000  1
  N  N493  1  0.04834000  0.87839000  0.59768000  1
  N  N494  1  0.02795000  0.88782000  0.28810000  1
  N  N495  1  0.28997000  0.94721000  0.81894000  1
  N  N496  1  0.28071000  0.95166000  0.40232000  1
  N  N497  1  0.41581000  0.96164000  0.23470000  1
  N  N498  1  0.59972000  0.97205000  0.71190000  1
  N  N499  1  0.39695000  0.97808000  0.26966000  1
  N  N500  1  0.71629000  0.98113000  0.52294000  1
  N  N501  1  0.32700000  0.98606000  0.83500000  1
  N  N502  1  0.69982000  0.99458000  0.19650000  1
  N  N503  1  0.31234000  0.99954000  0.45308000  1
  O  O504  1  0.24391000  0.10996000  0.71634000  1
  O  O505  1  0.23737000  0.11337000  0.62638000  1
  O  O506  1  0.48909000  0.13076000  0.93944000  1
  O  O507  1  0.57519000  0.15214000  0.93844000  1
  O  O508  1  0.16820000  0.15840000  0.70930000  1
  O  O509  1  0.45847000  0.16160000  0.62096000  1
  O  O510  1  0.16160000  0.16249000  0.62096000  1
  O  O511  1  0.55090000  0.16820000  0.70930000  1
  O  O512  1  0.31116000  0.18497000  0.77912000  1
  O  O513  1  0.54965000  0.19132000  0.06056000  1
  O  O514  1  0.29614000  0.19419000  0.69026000  1
  O  O515  1  0.47650000  0.20201000  0.93798000  1
  O  O516  1  0.63675000  0.21370000  0.06156000  1
  O  O517  1  0.45173000  0.22219000  0.69466000  1
  O  O518  1  0.56308000  0.22436000  0.93864000  1
  O  O519  1  0.23633000  0.23283000  0.78364000  1
  O  O520  1  0.55081000  0.23633000  0.78364000  1
  O  O521  1  0.51301000  0.23737000  0.62638000  1
  O  O522  1  0.22219000  0.24293000  0.69466000  1
  O  O523  1  0.60638000  0.24391000  0.71634000  1
  O  O524  1  0.53852000  0.26403000  0.06202000  1
  O  O525  1  0.62444000  0.28572000  0.06136000  1
  O  O526  1  0.49607000  0.29614000  0.69026000  1
  O  O527  1  0.59415000  0.31116000  0.77912000  1
  O  O528  1  0.15214000  0.36325000  0.93844000  1
  O  O529  1  0.22436000  0.37556000  0.93864000  1
  O  O530  1  0.11337000  0.38901000  0.62638000  1
  O  O531  1  0.52757000  0.39362000  0.28366000  1
  O  O532  1  0.19419000  0.39412000  0.69026000  1
  O  O533  1  0.53204000  0.40585000  0.22088000  1
  O  O534  1  0.21370000  0.42481000  0.06156000  1
  O  O535  1  0.28572000  0.43692000  0.06136000  1
  O  O536  1  0.45890000  0.44910000  0.29070000  1
  O  O537  1  0.45269000  0.44919000  0.21636000  1
  O  O538  1  0.13076000  0.45035000  0.93944000  1
  O  O539  1  0.47247000  0.45173000  0.69466000  1
  O  O540  1  0.76717000  0.45269000  0.21636000  1
  O  O541  1  0.45936000  0.45847000  0.62096000  1
  O  O542  1  0.84160000  0.45890000  0.29070000  1
  O  O543  1  0.16249000  0.45936000  0.62096000  1
  O  O544  1  0.20201000  0.46148000  0.93798000  1
  O  O545  1  0.18497000  0.46796000  0.77912000  1
  O  O546  1  0.10996000  0.47243000  0.71634000  1
  O  O547  1  0.24293000  0.47247000  0.69466000  1
  O  O548  1  0.73597000  0.47650000  0.93798000  1
  O  O549  1  0.61099000  0.48699000  0.37362000  1
  O  O550  1  0.80868000  0.48909000  0.93944000  1
  O  O551  1  0.39412000  0.49607000  0.69026000  1
  O  O552  1  0.60588000  0.50393000  0.30974000  1
  O  O553  1  0.19132000  0.51091000  0.06056000  1
  O  O554  1  0.38901000  0.51301000  0.62638000  1
  O  O555  1  0.26403000  0.52350000  0.06202000  1
  O  O556  1  0.75707000  0.52753000  0.30534000  1
  O  O557  1  0.89004000  0.52757000  0.28366000  1
  O  O558  1  0.81503000  0.53204000  0.22088000  1
  O  O559  1  0.79799000  0.53852000  0.06202000  1
  O  O560  1  0.83751000  0.54064000  0.37904000  1
  O  O561  1  0.15840000  0.54110000  0.70930000  1
  O  O562  1  0.54064000  0.54153000  0.37904000  1
  O  O563  1  0.23283000  0.54731000  0.78364000  1
  O  O564  1  0.52753000  0.54827000  0.30534000  1
  O  O565  1  0.86924000  0.54965000  0.06056000  1
  O  O566  1  0.54731000  0.55081000  0.78364000  1
  O  O567  1  0.54110000  0.55090000  0.70930000  1
  O  O568  1  0.71428000  0.56308000  0.93864000  1
  O  O569  1  0.78630000  0.57519000  0.93844000  1
  O  O570  1  0.46796000  0.59415000  0.77912000  1
  O  O571  1  0.80581000  0.60588000  0.30974000  1
  O  O572  1  0.47243000  0.60638000  0.71634000  1
  O  O573  1  0.88663000  0.61099000  0.37362000  1
  O  O574  1  0.77564000  0.62444000  0.06136000  1
  O  O575  1  0.84786000  0.63675000  0.06156000  1
  O  O576  1  0.40585000  0.68884000  0.22088000  1
  O  O577  1  0.50393000  0.70386000  0.30974000  1
  O  O578  1  0.37556000  0.71428000  0.93864000  1
  O  O579  1  0.46148000  0.73597000  0.93798000  1
  O  O580  1  0.39362000  0.75609000  0.28366000  1
  O  O581  1  0.77781000  0.75707000  0.30534000  1
  O  O582  1  0.48699000  0.76263000  0.37362000  1
  O  O583  1  0.44919000  0.76367000  0.21636000  1
  O  O584  1  0.76367000  0.76717000  0.21636000  1
  O  O585  1  0.43692000  0.77564000  0.06136000  1
  O  O586  1  0.54827000  0.77781000  0.30534000  1
  O  O587  1  0.36325000  0.78630000  0.93844000  1
  O  O588  1  0.52350000  0.79799000  0.06202000  1
  O  O589  1  0.70386000  0.80581000  0.30974000  1
  O  O590  1  0.45035000  0.80868000  0.93944000  1
  O  O591  1  0.68884000  0.81503000  0.22088000  1
  O  O592  1  0.44910000  0.83180000  0.29070000  1
  O  O593  1  0.83840000  0.83751000  0.37904000  1
  O  O594  1  0.54153000  0.83840000  0.37904000  1
  O  O595  1  0.83180000  0.84160000  0.29070000  1
  O  O596  1  0.42481000  0.84786000  0.06156000  1
  O  O597  1  0.51091000  0.86924000  0.06056000  1
  O  O598  1  0.76263000  0.88663000  0.37362000  1
  O  O599  1  0.75609000  0.89004000  0.28366000  1
