# generated using pymatgen
data_ZnH30(C11O3)4
_symmetry_space_group_name_H-M   'P 1'
_cell_length_a   15.11600000
_cell_length_b   15.39300000
_cell_length_c   18.22500000
_cell_angle_alpha   105.73200000
_cell_angle_beta   106.55300000
_cell_angle_gamma   104.40500000
_symmetry_Int_Tables_number   1
_chemical_formula_structural   ZnH30(C11O3)4
_chemical_formula_sum   'Zn2 H60 C88 O24'
_cell_volume   3660.18796488
_cell_formula_units_Z   2
loop_
 _symmetry_equiv_pos_site_id
 _symmetry_equiv_pos_as_xyz
  1  'x, y, z'
loop_
 _atom_site_type_symbol
 _atom_site_label
 _atom_site_symmetry_multiplicity
 _atom_site_fract_x
 _atom_site_fract_y
 _atom_site_fract_z
 _atom_site_occupancy
  Zn  Zn0  1  0.19169000  0.02708000  0.93006000  1
  Zn  Zn1  1  0.80831000  0.97292000  0.06994000  1
  H  H2  1  0.06570000  0.99530000  0.31930000  1
  H  H3  1  0.12950000  0.14130000  0.18130000  1
  H  H4  1  0.15370000  0.29060000  0.16170000  1
  H  H5  1  0.19180000  0.94350000  0.20150000  1
  H  H6  1  0.19840000  0.76290000  0.69800000  1
  H  H7  1  0.20340000  0.80280000  0.44280000  1
  H  H8  1  0.22790000  0.44860000  0.25550000  1
  H  H9  1  0.22810000  0.05330000  0.40820000  1
  H  H10  1  0.26390000  0.87050000  0.28480000  1
  H  H11  1  0.27050000  0.27930000  0.52830000  1
  H  H12  1  0.27230000  0.86170000  0.53550000  1
  H  H13  1  0.27730000  0.72270000  0.60910000  1
  H  H14  1  0.29190000  0.20920000  0.26940000  1
  H  H15  1  0.30910000  0.87550000  0.46580000  1
  H  H16  1  0.31650000  0.48490000  0.40610000  1
  H  H17  1  0.32220000  0.30170000  0.46890000  1
  H  H18  1  0.32280000  0.63920000  0.16040000  1
  H  H19  1  0.33580000  0.59540000  0.44370000  1
  H  H20  1  0.33690000  0.87470000  0.05650000  1
  H  H21  1  0.33830000  0.33590000  0.04920000  1
  H  H22  1  0.37620000  0.35790000  0.56420000  1
  H  H23  1  0.39810000  0.78620000  0.13470000  1
  H  H24  1  0.40350000  0.50350000  0.13360000  1
  H  H25  1  0.41090000  0.55210000  0.48470000  1
  H  H26  1  0.41420000  0.02110000  0.82070000  1
  H  H27  1  0.41690000  0.12930000  0.29490000  1
  H  H28  1  0.43040000  0.08010000  0.56340000  1
  H  H29  1  0.46530000  0.99130000  0.55350000  1
  H  H30  1  0.47390000  0.05460000  0.64040000  1
  H  H31  1  0.49920000  0.97780000  0.73780000  1
  H  H32  1  0.50080000  0.02220000  0.26220000  1
  H  H33  1  0.52610000  0.94540000  0.35960000  1
  H  H34  1  0.53470000  0.00870000  0.44650000  1
  H  H35  1  0.56960000  0.91990000  0.43660000  1
  H  H36  1  0.58310000  0.87070000  0.70510000  1
  H  H37  1  0.58580000  0.97890000  0.17930000  1
  H  H38  1  0.58910000  0.44790000  0.51530000  1
  H  H39  1  0.59650000  0.49650000  0.86640000  1
  H  H40  1  0.60190000  0.21380000  0.86530000  1
  H  H41  1  0.62380000  0.64210000  0.43580000  1
  H  H42  1  0.66170000  0.66410000  0.95080000  1
  H  H43  1  0.66310000  0.12530000  0.94350000  1
  H  H44  1  0.66420000  0.40460000  0.55630000  1
  H  H45  1  0.67720000  0.36080000  0.83960000  1
  H  H46  1  0.67780000  0.69830000  0.53110000  1
  H  H47  1  0.68350000  0.51510000  0.59390000  1
  H  H48  1  0.69090000  0.12450000  0.53420000  1
  H  H49  1  0.70810000  0.79080000  0.73060000  1
  H  H50  1  0.72270000  0.27730000  0.39090000  1
  H  H51  1  0.72770000  0.13830000  0.46450000  1
  H  H52  1  0.72950000  0.72070000  0.47170000  1
  H  H53  1  0.73610000  0.12950000  0.71520000  1
  H  H54  1  0.77190000  0.94670000  0.59180000  1
  H  H55  1  0.77210000  0.55140000  0.74450000  1
  H  H56  1  0.79660000  0.19720000  0.55720000  1
  H  H57  1  0.80160000  0.23710000  0.30200000  1
  H  H58  1  0.80820000  0.05650000  0.79850000  1
  H  H59  1  0.84630000  0.70940000  0.83830000  1
  H  H60  1  0.87050000  0.85870000  0.81870000  1
  H  H61  1  0.93430000  0.00470000  0.68070000  1
  C  C62  1  0.02100000  0.98790000  0.81930000  1
  C  C63  1  0.08360000  0.06060000  0.24040000  1
  C  C64  1  0.11320000  0.03680000  0.30940000  1
  C  C65  1  0.15000000  0.12430000  0.22690000  1
  C  C66  1  0.18700000  0.19170000  0.03970000  1
  C  C67  1  0.20310000  0.95230000  0.06090000  1
  C  C68  1  0.20610000  0.33250000  0.15700000  1
  C  C69  1  0.20880000  0.07140000  0.36320000  1
  C  C70  1  0.23380000  0.91280000  0.18780000  1
  C  C71  1  0.23750000  0.29890000  0.09760000  1
  C  C72  1  0.24170000  0.92220000  0.81870000  1
  C  C73  1  0.24680000  0.16440000  0.27870000  1
  C  C74  1  0.24870000  0.42820000  0.21260000  1
  C  C75  1  0.25400000  0.91210000  0.11920000  1
  C  C76  1  0.25750000  0.80700000  0.70480000  1
  C  C77  1  0.27040000  0.82980000  0.48160000  1
  C  C78  1  0.27630000  0.86750000  0.23720000  1
  C  C79  1  0.27680000  0.13680000  0.34610000  1
  C  C80  1  0.29740000  0.89690000  0.76720000  1
  C  C81  1  0.30590000  0.78240000  0.65210000  1
  C  C82  1  0.31360000  0.35930000  0.08860000  1
  C  C83  1  0.31850000  0.87030000  0.10030000  1
  C  C84  1  0.32300000  0.49230000  0.20220000  1
  C  C85  1  0.33250000  0.29680000  0.52180000  1
  C  C86  1  0.33740000  0.81710000  0.21680000  1
  C  C87  1  0.34760000  0.66110000  0.21760000  1
  C  C88  1  0.35500000  0.46050000  0.14150000  1
  C  C89  1  0.35790000  0.81880000  0.14960000  1
  C  C90  1  0.36180000  0.59630000  0.25470000  1
  C  C91  1  0.36630000  0.54810000  0.43340000  1
  C  C92  1  0.36900000  0.75850000  0.26210000  1
  C  C93  1  0.38720000  0.96060000  0.77870000  1
  C  C94  1  0.38840000  0.17320000  0.39620000  1
  C  C95  1  0.39650000  0.84580000  0.66280000  1
  C  C96  1  0.40200000  0.62990000  0.34160000  1
  C  C97  1  0.40360000  0.78480000  0.34580000  1
  C  C98  1  0.41070000  0.78040000  0.52550000  1
  C  C99  1  0.42300000  0.72380000  0.38670000  1
  C  C100  1  0.42910000  0.21110000  0.48030000  1
  C  C101  1  0.43770000  0.93520000  0.72820000  1
  C  C102  1  0.44650000  0.15660000  0.35200000  1
  C  C103  1  0.45000000  0.82090000  0.61050000  1
  C  C104  1  0.46880000  0.76690000  0.48130000  1
  C  C105  1  0.47820000  0.05560000  0.58910000  1
  C  C106  1  0.52180000  0.94440000  0.41090000  1
  C  C107  1  0.53120000  0.23310000  0.51870000  1
  C  C108  1  0.55000000  0.17910000  0.38950000  1
  C  C109  1  0.55350000  0.84340000  0.64800000  1
  C  C110  1  0.56230000  0.06480000  0.27180000  1
  C  C111  1  0.57090000  0.78890000  0.51970000  1
  C  C112  1  0.57700000  0.27620000  0.61330000  1
  C  C113  1  0.58930000  0.21960000  0.47450000  1
  C  C114  1  0.59640000  0.21520000  0.65420000  1
  C  C115  1  0.59800000  0.37010000  0.65840000  1
  C  C116  1  0.60350000  0.15420000  0.33720000  1
  C  C117  1  0.61160000  0.82680000  0.60380000  1
  C  C118  1  0.61280000  0.03940000  0.22130000  1
  C  C119  1  0.63100000  0.24150000  0.73790000  1
  C  C120  1  0.63370000  0.45190000  0.56660000  1
  C  C121  1  0.63820000  0.40370000  0.74530000  1
  C  C122  1  0.64210000  0.18120000  0.85040000  1
  C  C123  1  0.64500000  0.53950000  0.85850000  1
  C  C124  1  0.65240000  0.33890000  0.78240000  1
  C  C125  1  0.66260000  0.18290000  0.78320000  1
  C  C126  1  0.66750000  0.70320000  0.47820000  1
  C  C127  1  0.67700000  0.50770000  0.79780000  1
  C  C128  1  0.68150000  0.12970000  0.89970000  1
  C  C129  1  0.68640000  0.64070000  0.91140000  1
  C  C130  1  0.69410000  0.21760000  0.34790000  1
  C  C131  1  0.70260000  0.10310000  0.23280000  1
  C  C132  1  0.72320000  0.86320000  0.65390000  1
  C  C133  1  0.72370000  0.13250000  0.76280000  1
  C  C134  1  0.72960000  0.17020000  0.51840000  1
  C  C135  1  0.74250000  0.19300000  0.29520000  1
  C  C136  1  0.74600000  0.08790000  0.88080000  1
  C  C137  1  0.75130000  0.57180000  0.78740000  1
  C  C138  1  0.75320000  0.83560000  0.72130000  1
  C  C139  1  0.75830000  0.07780000  0.18130000  1
  C  C140  1  0.76250000  0.70110000  0.90240000  1
  C  C141  1  0.76620000  0.08720000  0.81220000  1
  C  C142  1  0.79120000  0.92860000  0.63680000  1
  C  C143  1  0.79390000  0.66750000  0.84300000  1
  C  C144  1  0.79690000  0.04770000  0.93910000  1
  C  C145  1  0.81300000  0.80830000  0.96030000  1
  C  C146  1  0.85000000  0.87570000  0.77310000  1
  C  C147  1  0.88680000  0.96320000  0.69060000  1
  C  C148  1  0.91640000  0.93940000  0.75960000  1
  C  C149  1  0.97900000  0.01210000  0.18070000  1
  O  O150  1  0.04350000  0.96880000  0.88590000  1
  O  O151  1  0.08380000  0.04080000  0.80530000  1
  O  O152  1  0.10890000  0.14430000  0.04290000  1
  O  O153  1  0.12010000  0.95470000  0.06190000  1
  O  O154  1  0.16590000  0.86270000  0.81410000  1
  O  O155  1  0.23460000  0.16330000  0.99530000  1
  O  O156  1  0.24290000  0.97540000  0.01410000  1
  O  O157  1  0.27850000  0.01010000  0.87060000  1
  O  O158  1  0.31050000  0.75270000  0.48260000  1
  O  O159  1  0.37510000  0.22530000  0.52800000  1
  O  O160  1  0.42290000  0.56700000  0.37940000  1
  O  O161  1  0.42480000  0.88350000  0.39610000  1
  O  O162  1  0.57520000  0.11650000  0.60390000  1
  O  O163  1  0.57710000  0.43300000  0.62060000  1
  O  O164  1  0.62490000  0.77470000  0.47200000  1
  O  O165  1  0.68950000  0.24730000  0.51740000  1
  O  O166  1  0.72150000  0.98990000  0.12940000  1
  O  O167  1  0.75710000  0.02460000  0.98590000  1
  O  O168  1  0.76540000  0.83670000  0.00470000  1
  O  O169  1  0.83410000  0.13730000  0.18590000  1
  O  O170  1  0.87990000  0.04530000  0.93810000  1
  O  O171  1  0.89110000  0.85570000  0.95710000  1
  O  O172  1  0.91620000  0.95920000  0.19470000  1
  O  O173  1  0.95650000  0.03120000  0.11410000  1
