# generated using pymatgen
data_ZnH14C18(NO2)2
_symmetry_space_group_name_H-M   'P 1'
_cell_length_a   13.50000000
_cell_length_b   14.70200000
_cell_length_c   21.24500000
_cell_angle_alpha   90.00000000
_cell_angle_beta   90.00000000
_cell_angle_gamma   90.00000000
_symmetry_Int_Tables_number   1
_chemical_formula_structural   ZnH14C18(NO2)2
_chemical_formula_sum   'Zn8 H112 C144 N16 O32'
_cell_volume   4216.64386500
_cell_formula_units_Z   8
loop_
 _symmetry_equiv_pos_site_id
 _symmetry_equiv_pos_as_xyz
  1  'x, y, z'
loop_
 _atom_site_type_symbol
 _atom_site_label
 _atom_site_symmetry_multiplicity
 _atom_site_fract_x
 _atom_site_fract_y
 _atom_site_fract_z
 _atom_site_occupancy
  Zn  Zn0  1  0.00187000  0.10519000  0.43145000  1
  Zn  Zn1  1  0.00187000  0.39481000  0.93145000  1
  Zn  Zn2  1  0.49813000  0.60519000  0.43145000  1
  Zn  Zn3  1  0.49813000  0.89481000  0.93145000  1
  Zn  Zn4  1  0.50187000  0.10519000  0.06855000  1
  Zn  Zn5  1  0.50187000  0.39481000  0.56855000  1
  Zn  Zn6  1  0.99813000  0.60519000  0.06855000  1
  Zn  Zn7  1  0.99813000  0.89481000  0.56855000  1
  H  H8  1  0.00000000  0.23770000  0.61710000  1
  H  H9  1  0.00000000  0.26230000  0.11710000  1
  H  H10  1  0.00000000  0.73770000  0.88290000  1
  H  H11  1  0.00000000  0.76230000  0.38290000  1
  H  H12  1  0.00560000  0.01290000  0.91460000  1
  H  H13  1  0.00560000  0.21730000  0.22820000  1
  H  H14  1  0.00560000  0.28270000  0.72820000  1
  H  H15  1  0.00560000  0.48710000  0.41460000  1
  H  H16  1  0.00680000  0.12120000  0.99100000  1
  H  H17  1  0.00680000  0.37880000  0.49100000  1
  H  H18  1  0.01640000  0.09430000  0.69850000  1
  H  H19  1  0.01640000  0.40570000  0.19850000  1
  H  H20  1  0.01700000  0.13840000  0.80980000  1
  H  H21  1  0.01700000  0.36160000  0.30980000  1
  H  H22  1  0.14300000  0.01740000  0.11370000  1
  H  H23  1  0.14300000  0.48260000  0.61370000  1
  H  H24  1  0.14760000  0.63280000  0.51590000  1
  H  H25  1  0.14760000  0.86720000  0.01590000  1
  H  H26  1  0.16100000  0.00830000  0.85590000  1
  H  H27  1  0.16100000  0.49170000  0.35590000  1
  H  H28  1  0.16210000  0.69010000  0.98620000  1
  H  H29  1  0.16210000  0.80990000  0.48620000  1
  H  H30  1  0.17410000  0.02810000  0.34890000  1
  H  H31  1  0.17410000  0.47190000  0.84890000  1
  H  H32  1  0.17470000  0.17250000  0.96030000  1
  H  H33  1  0.17470000  0.32750000  0.46030000  1
  H  H34  1  0.18760000  0.16560000  0.50430000  1
  H  H35  1  0.18760000  0.33440000  0.00430000  1
  H  H36  1  0.19240000  0.53700000  0.13300000  1
  H  H37  1  0.19240000  0.96300000  0.63300000  1
  H  H38  1  0.30760000  0.03700000  0.13300000  1
  H  H39  1  0.30760000  0.46300000  0.63300000  1
  H  H40  1  0.31240000  0.66560000  0.50430000  1
  H  H41  1  0.31240000  0.83440000  0.00430000  1
  H  H42  1  0.32530000  0.67250000  0.96030000  1
  H  H43  1  0.32530000  0.82750000  0.46030000  1
  H  H44  1  0.32590000  0.52810000  0.34890000  1
  H  H45  1  0.32590000  0.97190000  0.84890000  1
  H  H46  1  0.33790000  0.19010000  0.98620000  1
  H  H47  1  0.33790000  0.30990000  0.48620000  1
  H  H48  1  0.33900000  0.50830000  0.85590000  1
  H  H49  1  0.33900000  0.99170000  0.35590000  1
  H  H50  1  0.35240000  0.13280000  0.51590000  1
  H  H51  1  0.35240000  0.36720000  0.01590000  1
  H  H52  1  0.35700000  0.51740000  0.11370000  1
  H  H53  1  0.35700000  0.98260000  0.61370000  1
  H  H54  1  0.48300000  0.63840000  0.80980000  1
  H  H55  1  0.48300000  0.86160000  0.30980000  1
  H  H56  1  0.48360000  0.59430000  0.69850000  1
  H  H57  1  0.48360000  0.90570000  0.19850000  1
  H  H58  1  0.49320000  0.62120000  0.99100000  1
  H  H59  1  0.49320000  0.87880000  0.49100000  1
  H  H60  1  0.49440000  0.51290000  0.91460000  1
  H  H61  1  0.49440000  0.71730000  0.22820000  1
  H  H62  1  0.49440000  0.78270000  0.72820000  1
  H  H63  1  0.49440000  0.98710000  0.41460000  1
  H  H64  1  0.50000000  0.23770000  0.88290000  1
  H  H65  1  0.50000000  0.26230000  0.38290000  1
  H  H66  1  0.50000000  0.73770000  0.61710000  1
  H  H67  1  0.50000000  0.76230000  0.11710000  1
  H  H68  1  0.50560000  0.01290000  0.58540000  1
  H  H69  1  0.50560000  0.21730000  0.27180000  1
  H  H70  1  0.50560000  0.28270000  0.77180000  1
  H  H71  1  0.50560000  0.48710000  0.08540000  1
  H  H72  1  0.50680000  0.12120000  0.50900000  1
  H  H73  1  0.50680000  0.37880000  0.00900000  1
  H  H74  1  0.51640000  0.09430000  0.80150000  1
  H  H75  1  0.51640000  0.40570000  0.30150000  1
  H  H76  1  0.51700000  0.13840000  0.69020000  1
  H  H77  1  0.51700000  0.36160000  0.19020000  1
  H  H78  1  0.64300000  0.01740000  0.38630000  1
  H  H79  1  0.64300000  0.48260000  0.88630000  1
  H  H80  1  0.64760000  0.63280000  0.98410000  1
  H  H81  1  0.64760000  0.86720000  0.48410000  1
  H  H82  1  0.66100000  0.00830000  0.64410000  1
  H  H83  1  0.66100000  0.49170000  0.14410000  1
  H  H84  1  0.66210000  0.69010000  0.51380000  1
  H  H85  1  0.66210000  0.80990000  0.01380000  1
  H  H86  1  0.67410000  0.02810000  0.15110000  1
  H  H87  1  0.67410000  0.47190000  0.65110000  1
  H  H88  1  0.67470000  0.17250000  0.53970000  1
  H  H89  1  0.67470000  0.32750000  0.03970000  1
  H  H90  1  0.68760000  0.16560000  0.99570000  1
  H  H91  1  0.68760000  0.33440000  0.49570000  1
  H  H92  1  0.69240000  0.53700000  0.36700000  1
  H  H93  1  0.69240000  0.96300000  0.86700000  1
  H  H94  1  0.80760000  0.03700000  0.36700000  1
  H  H95  1  0.80760000  0.46300000  0.86700000  1
  H  H96  1  0.81240000  0.66560000  0.99570000  1
  H  H97  1  0.81240000  0.83440000  0.49570000  1
  H  H98  1  0.82530000  0.67250000  0.53970000  1
  H  H99  1  0.82530000  0.82750000  0.03970000  1
  H  H100  1  0.82590000  0.52810000  0.15110000  1
  H  H101  1  0.82590000  0.97190000  0.65110000  1
  H  H102  1  0.83790000  0.19010000  0.51380000  1
  H  H103  1  0.83790000  0.30990000  0.01380000  1
  H  H104  1  0.83900000  0.50830000  0.64410000  1
  H  H105  1  0.83900000  0.99170000  0.14410000  1
  H  H106  1  0.85240000  0.13280000  0.98410000  1
  H  H107  1  0.85240000  0.36720000  0.48410000  1
  H  H108  1  0.85700000  0.51740000  0.38630000  1
  H  H109  1  0.85700000  0.98260000  0.88630000  1
  H  H110  1  0.98300000  0.63840000  0.69020000  1
  H  H111  1  0.98300000  0.86160000  0.19020000  1
  H  H112  1  0.98360000  0.59430000  0.80150000  1
  H  H113  1  0.98360000  0.90570000  0.30150000  1
  H  H114  1  0.99320000  0.62120000  0.50900000  1
  H  H115  1  0.99320000  0.87880000  0.00900000  1
  H  H116  1  0.99440000  0.51290000  0.58540000  1
  H  H117  1  0.99440000  0.71730000  0.27180000  1
  H  H118  1  0.99440000  0.78270000  0.77180000  1
  H  H119  1  0.99440000  0.98710000  0.08540000  1
  C  C120  1  0.00580000  0.17660000  0.62790000  1
  C  C121  1  0.00580000  0.32340000  0.12790000  1
  C  C122  1  0.00760000  0.23110000  0.35020000  1
  C  C123  1  0.00760000  0.26890000  0.85020000  1
  C  C124  1  0.00870000  0.10860000  0.57660000  1
  C  C125  1  0.00870000  0.39140000  0.07660000  1
  C  C126  1  0.00910000  0.22130000  0.73870000  1
  C  C127  1  0.00910000  0.27870000  0.23870000  1
  C  C128  1  0.01110000  0.15540000  0.68790000  1
  C  C129  1  0.01110000  0.34460000  0.18790000  1
  C  C130  1  0.01200000  0.19950000  0.79880000  1
  C  C131  1  0.01200000  0.30050000  0.29880000  1
  C  C132  1  0.03660000  0.51000000  0.45310000  1
  C  C133  1  0.03660000  0.99000000  0.95310000  1
  C  C134  1  0.03840000  0.06550000  0.00650000  1
  C  C135  1  0.03840000  0.43450000  0.50650000  1
  C  C136  1  0.13610000  0.55170000  0.43970000  1
  C  C137  1  0.13610000  0.94830000  0.93970000  1
  C  C138  1  0.13940000  0.08710000  0.03180000  1
  C  C139  1  0.13940000  0.41290000  0.53180000  1
  C  C140  1  0.18160000  0.05050000  0.08550000  1
  C  C141  1  0.18160000  0.44950000  0.58550000  1
  C  C142  1  0.18280000  0.60820000  0.48240000  1
  C  C143  1  0.18280000  0.89180000  0.98240000  1
  C  C144  1  0.19090000  0.52490000  0.38790000  1
  C  C145  1  0.19090000  0.97510000  0.88790000  1
  C  C146  1  0.20020000  0.14240000  0.99520000  1
  C  C147  1  0.20020000  0.35760000  0.49520000  1
  C  C148  1  0.20100000  0.65230000  0.01120000  1
  C  C149  1  0.20100000  0.84770000  0.51120000  1
  C  C150  1  0.20980000  0.04740000  0.38380000  1
  C  C151  1  0.20980000  0.45260000  0.88380000  1
  C  C152  1  0.21810000  0.12790000  0.47500000  1
  C  C153  1  0.21810000  0.37210000  0.97500000  1
  C  C154  1  0.21920000  0.56330000  0.09700000  1
  C  C155  1  0.21920000  0.93670000  0.59700000  1
  C  C156  1  0.28080000  0.06330000  0.09700000  1
  C  C157  1  0.28080000  0.43670000  0.59700000  1
  C  C158  1  0.28190000  0.62790000  0.47500000  1
  C  C159  1  0.28190000  0.87210000  0.97500000  1
  C  C160  1  0.29020000  0.54740000  0.38380000  1
  C  C161  1  0.29020000  0.95260000  0.88380000  1
  C  C162  1  0.29900000  0.15230000  0.01120000  1
  C  C163  1  0.29900000  0.34770000  0.51120000  1
  C  C164  1  0.29980000  0.64240000  0.99520000  1
  C  C165  1  0.29980000  0.85760000  0.49520000  1
  C  C166  1  0.30910000  0.02490000  0.38790000  1
  C  C167  1  0.30910000  0.47510000  0.88790000  1
  C  C168  1  0.31720000  0.10820000  0.48240000  1
  C  C169  1  0.31720000  0.39180000  0.98240000  1
  C  C170  1  0.31840000  0.55050000  0.08550000  1
  C  C171  1  0.31840000  0.94950000  0.58550000  1
  C  C172  1  0.36060000  0.58710000  0.03180000  1
  C  C173  1  0.36060000  0.91290000  0.53180000  1
  C  C174  1  0.36390000  0.05170000  0.43970000  1
  C  C175  1  0.36390000  0.44830000  0.93970000  1
  C  C176  1  0.46160000  0.56550000  0.00650000  1
  C  C177  1  0.46160000  0.93450000  0.50650000  1
  C  C178  1  0.46340000  0.01000000  0.45310000  1
  C  C179  1  0.46340000  0.49000000  0.95310000  1
  C  C180  1  0.48800000  0.69950000  0.79880000  1
  C  C181  1  0.48800000  0.80050000  0.29880000  1
  C  C182  1  0.48890000  0.65540000  0.68790000  1
  C  C183  1  0.48890000  0.84460000  0.18790000  1
  C  C184  1  0.49090000  0.72130000  0.73870000  1
  C  C185  1  0.49090000  0.77870000  0.23870000  1
  C  C186  1  0.49130000  0.60860000  0.57660000  1
  C  C187  1  0.49130000  0.89140000  0.07660000  1
  C  C188  1  0.49240000  0.73110000  0.35020000  1
  C  C189  1  0.49240000  0.76890000  0.85020000  1
  C  C190  1  0.49420000  0.67660000  0.62790000  1
  C  C191  1  0.49420000  0.82340000  0.12790000  1
  C  C192  1  0.50580000  0.17660000  0.87210000  1
  C  C193  1  0.50580000  0.32340000  0.37210000  1
  C  C194  1  0.50760000  0.23110000  0.14980000  1
  C  C195  1  0.50760000  0.26890000  0.64980000  1
  C  C196  1  0.50870000  0.10860000  0.92340000  1
  C  C197  1  0.50870000  0.39140000  0.42340000  1
  C  C198  1  0.50910000  0.22130000  0.76130000  1
  C  C199  1  0.50910000  0.27870000  0.26130000  1
  C  C200  1  0.51110000  0.15540000  0.81210000  1
  C  C201  1  0.51110000  0.34460000  0.31210000  1
  C  C202  1  0.51200000  0.19950000  0.70120000  1
  C  C203  1  0.51200000  0.30050000  0.20120000  1
  C  C204  1  0.53660000  0.51000000  0.04690000  1
  C  C205  1  0.53660000  0.99000000  0.54690000  1
  C  C206  1  0.53840000  0.06550000  0.49350000  1
  C  C207  1  0.53840000  0.43450000  0.99350000  1
  C  C208  1  0.63610000  0.55170000  0.06030000  1
  C  C209  1  0.63610000  0.94830000  0.56030000  1
  C  C210  1  0.63940000  0.08710000  0.46820000  1
  C  C211  1  0.63940000  0.41290000  0.96820000  1
  C  C212  1  0.68160000  0.05050000  0.41450000  1
  C  C213  1  0.68160000  0.44950000  0.91450000  1
  C  C214  1  0.68280000  0.60820000  0.01760000  1
  C  C215  1  0.68280000  0.89180000  0.51760000  1
  C  C216  1  0.69090000  0.52490000  0.11210000  1
  C  C217  1  0.69090000  0.97510000  0.61210000  1
  C  C218  1  0.70020000  0.14240000  0.50480000  1
  C  C219  1  0.70020000  0.35760000  0.00480000  1
  C  C220  1  0.70100000  0.65230000  0.48880000  1
  C  C221  1  0.70100000  0.84770000  0.98880000  1
  C  C222  1  0.70980000  0.04740000  0.11620000  1
  C  C223  1  0.70980000  0.45260000  0.61620000  1
  C  C224  1  0.71810000  0.12790000  0.02500000  1
  C  C225  1  0.71810000  0.37210000  0.52500000  1
  C  C226  1  0.71920000  0.56330000  0.40300000  1
  C  C227  1  0.71920000  0.93670000  0.90300000  1
  C  C228  1  0.78080000  0.06330000  0.40300000  1
  C  C229  1  0.78080000  0.43670000  0.90300000  1
  C  C230  1  0.78190000  0.62790000  0.02500000  1
  C  C231  1  0.78190000  0.87210000  0.52500000  1
  C  C232  1  0.79020000  0.54740000  0.11620000  1
  C  C233  1  0.79020000  0.95260000  0.61620000  1
  C  C234  1  0.79900000  0.15230000  0.48880000  1
  C  C235  1  0.79900000  0.34770000  0.98880000  1
  C  C236  1  0.79980000  0.64240000  0.50480000  1
  C  C237  1  0.79980000  0.85760000  0.00480000  1
  C  C238  1  0.80910000  0.02490000  0.11210000  1
  C  C239  1  0.80910000  0.47510000  0.61210000  1
  C  C240  1  0.81720000  0.10820000  0.01760000  1
  C  C241  1  0.81720000  0.39180000  0.51760000  1
  C  C242  1  0.81840000  0.55050000  0.41450000  1
  C  C243  1  0.81840000  0.94950000  0.91450000  1
  C  C244  1  0.86060000  0.58710000  0.46820000  1
  C  C245  1  0.86060000  0.91290000  0.96820000  1
  C  C246  1  0.86390000  0.05170000  0.06030000  1
  C  C247  1  0.86390000  0.44830000  0.56030000  1
  C  C248  1  0.96160000  0.56550000  0.49350000  1
  C  C249  1  0.96160000  0.93450000  0.99350000  1
  C  C250  1  0.96340000  0.01000000  0.04690000  1
  C  C251  1  0.96340000  0.49000000  0.54690000  1
  C  C252  1  0.98800000  0.69950000  0.70120000  1
  C  C253  1  0.98800000  0.80050000  0.20120000  1
  C  C254  1  0.98890000  0.65540000  0.81210000  1
  C  C255  1  0.98890000  0.84460000  0.31210000  1
  C  C256  1  0.99090000  0.72130000  0.76130000  1
  C  C257  1  0.99090000  0.77870000  0.26130000  1
  C  C258  1  0.99130000  0.60860000  0.92340000  1
  C  C259  1  0.99130000  0.89140000  0.42340000  1
  C  C260  1  0.99240000  0.73110000  0.14980000  1
  C  C261  1  0.99240000  0.76890000  0.64980000  1
  C  C262  1  0.99420000  0.67660000  0.87210000  1
  C  C263  1  0.99420000  0.82340000  0.37210000  1
  N  N264  1  0.15820000  0.61160000  0.05960000  1
  N  N265  1  0.15820000  0.88840000  0.55960000  1
  N  N266  1  0.16360000  0.09500000  0.42720000  1
  N  N267  1  0.16360000  0.40500000  0.92720000  1
  N  N268  1  0.33640000  0.59500000  0.42720000  1
  N  N269  1  0.33640000  0.90500000  0.92720000  1
  N  N270  1  0.34180000  0.11160000  0.05960000  1
  N  N271  1  0.34180000  0.38840000  0.55960000  1
  N  N272  1  0.65820000  0.61160000  0.44040000  1
  N  N273  1  0.65820000  0.88840000  0.94040000  1
  N  N274  1  0.66360000  0.09500000  0.07280000  1
  N  N275  1  0.66360000  0.40500000  0.57280000  1
  N  N276  1  0.83640000  0.59500000  0.07280000  1
  N  N277  1  0.83640000  0.90500000  0.57280000  1
  N  N278  1  0.84180000  0.11160000  0.44040000  1
  N  N279  1  0.84180000  0.38840000  0.94040000  1
  O  O280  1  0.00110000  0.64800000  0.16364000  1
  O  O281  1  0.00110000  0.85200000  0.66364000  1
  O  O282  1  0.00790000  0.02770000  0.59120000  1
  O  O283  1  0.00790000  0.47230000  0.09120000  1
  O  O284  1  0.01110000  0.24200000  0.90570000  1
  O  O285  1  0.01110000  0.25800000  0.40570000  1
  O  O286  1  0.01330000  0.14210000  0.52256000  1
  O  O287  1  0.01330000  0.35790000  0.02256000  1
  O  O288  1  0.48670000  0.64210000  0.52256000  1
  O  O289  1  0.48670000  0.85790000  0.02256000  1
  O  O290  1  0.48890000  0.74200000  0.90570000  1
  O  O291  1  0.48890000  0.75800000  0.40570000  1
  O  O292  1  0.49210000  0.52770000  0.59120000  1
  O  O293  1  0.49210000  0.97230000  0.09120000  1
  O  O294  1  0.49890000  0.14800000  0.16364000  1
  O  O295  1  0.49890000  0.35200000  0.66364000  1
  O  O296  1  0.50110000  0.64800000  0.33636000  1
  O  O297  1  0.50110000  0.85200000  0.83636000  1
  O  O298  1  0.50790000  0.02770000  0.90880000  1
  O  O299  1  0.50790000  0.47230000  0.40880000  1
  O  O300  1  0.51110000  0.24200000  0.59430000  1
  O  O301  1  0.51110000  0.25800000  0.09430000  1
  O  O302  1  0.51330000  0.14210000  0.97744000  1
  O  O303  1  0.51330000  0.35790000  0.47744000  1
  O  O304  1  0.98670000  0.64210000  0.97744000  1
  O  O305  1  0.98670000  0.85790000  0.47744000  1
  O  O306  1  0.98890000  0.74200000  0.59430000  1
  O  O307  1  0.98890000  0.75800000  0.09430000  1
  O  O308  1  0.99210000  0.52770000  0.90880000  1
  O  O309  1  0.99210000  0.97230000  0.40880000  1
  O  O310  1  0.99890000  0.14800000  0.33636000  1
  O  O311  1  0.99890000  0.35200000  0.83636000  1
