# generated using pymatgen
data_Cu3H20WC26(S2N3)2
_symmetry_space_group_name_H-M   'P 1'
_cell_length_a   9.70970000
_cell_length_b   20.90600000
_cell_length_c   24.73940000
_cell_angle_alpha   104.60300000
_cell_angle_beta   90.00000000
_cell_angle_gamma   103.42800000
_symmetry_Int_Tables_number   1
_chemical_formula_structural   Cu3H20WC26(S2N3)2
_chemical_formula_sum   'Cu12 H80 W4 C104 S16 N24'
_cell_volume   4717.64446790
_cell_formula_units_Z   4
loop_
 _symmetry_equiv_pos_site_id
 _symmetry_equiv_pos_as_xyz
  1  'x, y, z'
loop_
 _atom_site_type_symbol
 _atom_site_label
 _atom_site_symmetry_multiplicity
 _atom_site_fract_x
 _atom_site_fract_y
 _atom_site_fract_z
 _atom_site_occupancy
  Cu  Cu0  1  0.02654000  0.26128000  0.89129000  1
  Cu  Cu1  1  0.03787000  0.78468000  0.50972000  1
  Cu  Cu2  1  0.06373000  0.70924000  0.96101000  1
  Cu  Cu3  1  0.23474000  0.26128000  0.39129000  1
  Cu  Cu4  1  0.25319000  0.21532000  0.99028000  1
  Cu  Cu5  1  0.35449000  0.29076000  0.53899000  1
  Cu  Cu6  1  0.64551000  0.70924000  0.46101000  1
  Cu  Cu7  1  0.74681000  0.78468000  0.00972000  1
  Cu  Cu8  1  0.76526000  0.73872000  0.60871000  1
  Cu  Cu9  1  0.93627000  0.29076000  0.03899000  1
  Cu  Cu10  1  0.96213000  0.21532000  0.49028000  1
  Cu  Cu11  1  0.97346000  0.73872000  0.10871000  1
  H  H12  1  0.00420000  0.33600000  0.39290000  1
  H  H13  1  0.00880000  0.40600000  0.94900000  1
  H  H14  1  0.02110000  0.45420000  0.59710000  1
  H  H15  1  0.03350000  0.55680000  0.58580000  1
  H  H16  1  0.05650000  0.64320000  0.16140000  1
  H  H17  1  0.05680000  0.34680000  0.57160000  1
  H  H18  1  0.06700000  0.83160000  0.22700000  1
  H  H19  1  0.12020000  0.89660000  0.45160000  1
  H  H20  1  0.14050000  0.51460000  0.97040000  1
  H  H21  1  0.17760000  0.63640000  0.23820000  1
  H  H22  1  0.19330000  0.83040000  0.30460000  1
  H  H23  1  0.22270000  0.63240000  0.32370000  1
  H  H24  1  0.22360000  0.10340000  0.04840000  1
  H  H25  1  0.23540000  0.16840000  0.27300000  1
  H  H26  1  0.24350000  0.62700000  0.88870000  1
  H  H27  1  0.25870000  0.71440000  0.53880000  1
  H  H28  1  0.26030000  0.82000000  0.91560000  1
  H  H29  1  0.29000000  0.34680000  0.07160000  1
  H  H30  1  0.29970000  0.98900000  0.45060000  1
  H  H31  1  0.30370000  0.60780000  0.01830000  1
  H  H32  1  0.30410000  0.60780000  0.51830000  1
  H  H33  1  0.31070000  0.01100000  0.04940000  1
  H  H34  1  0.33180000  0.33600000  0.89290000  1
  H  H35  1  0.35260000  0.83560000  0.54270000  1
  H  H36  1  0.36290000  0.16960000  0.19540000  1
  H  H37  1  0.37410000  0.51460000  0.47040000  1
  H  H38  1  0.38350000  0.62700000  0.38870000  1
  H  H39  1  0.38520000  0.92400000  0.04310000  1
  H  H40  1  0.39720000  0.40600000  0.44900000  1
  H  H41  1  0.40460000  0.83060000  0.34920000  1
  H  H42  1  0.40970000  0.63240000  0.82370000  1
  H  H43  1  0.41330000  0.35680000  0.33860000  1
  H  H44  1  0.42600000  0.83060000  0.84920000  1
  H  H45  1  0.43310000  0.45420000  0.09710000  1
  H  H46  1  0.44030000  0.18000000  0.58440000  1
  H  H47  1  0.45570000  0.71440000  0.03880000  1
  H  H48  1  0.45880000  0.63640000  0.73820000  1
  H  H49  1  0.46120000  0.07600000  0.45690000  1
  H  H50  1  0.47670000  0.44320000  0.91420000  1
  H  H51  1  0.48300000  0.83560000  0.04270000  1
  H  H52  1  0.51700000  0.16440000  0.95730000  1
  H  H53  1  0.52330000  0.55680000  0.08580000  1
  H  H54  1  0.53880000  0.92400000  0.54310000  1
  H  H55  1  0.54120000  0.36360000  0.26180000  1
  H  H56  1  0.54430000  0.28560000  0.96120000  1
  H  H57  1  0.55970000  0.82000000  0.41560000  1
  H  H58  1  0.56690000  0.54580000  0.90290000  1
  H  H59  1  0.57400000  0.16940000  0.15080000  1
  H  H60  1  0.58670000  0.64320000  0.66140000  1
  H  H61  1  0.59030000  0.36760000  0.17630000  1
  H  H62  1  0.59540000  0.16940000  0.65080000  1
  H  H63  1  0.60280000  0.59400000  0.55100000  1
  H  H64  1  0.61480000  0.07600000  0.95690000  1
  H  H65  1  0.61650000  0.37300000  0.61130000  1
  H  H66  1  0.62590000  0.48540000  0.52960000  1
  H  H67  1  0.63710000  0.83040000  0.80460000  1
  H  H68  1  0.64740000  0.16440000  0.45730000  1
  H  H69  1  0.66820000  0.66400000  0.10710000  1
  H  H70  1  0.68930000  0.98900000  0.95060000  1
  H  H71  1  0.69590000  0.39220000  0.48170000  1
  H  H72  1  0.69630000  0.39220000  0.98170000  1
  H  H73  1  0.70030000  0.01100000  0.54940000  1
  H  H74  1  0.71000000  0.65320000  0.92840000  1
  H  H75  1  0.73970000  0.18000000  0.08440000  1
  H  H76  1  0.74130000  0.28560000  0.46120000  1
  H  H77  1  0.75650000  0.37300000  0.11130000  1
  H  H78  1  0.76460000  0.83160000  0.72700000  1
  H  H79  1  0.77640000  0.89660000  0.95160000  1
  H  H80  1  0.77730000  0.36760000  0.67630000  1
  H  H81  1  0.80670000  0.16960000  0.69540000  1
  H  H82  1  0.82240000  0.36360000  0.76180000  1
  H  H83  1  0.85950000  0.48540000  0.02960000  1
  H  H84  1  0.87980000  0.10340000  0.54840000  1
  H  H85  1  0.93300000  0.16840000  0.77300000  1
  H  H86  1  0.94320000  0.65320000  0.42840000  1
  H  H87  1  0.94350000  0.35680000  0.83860000  1
  H  H88  1  0.96650000  0.44320000  0.41420000  1
  H  H89  1  0.97890000  0.54580000  0.40290000  1
  H  H90  1  0.99120000  0.59400000  0.05100000  1
  H  H91  1  0.99580000  0.66400000  0.60710000  1
  W  W92  1  0.02753000  0.82018000  0.03907000  1
  W  W93  1  0.20735000  0.17982000  0.46093000  1
  W  W94  1  0.79265000  0.82018000  0.53907000  1
  W  W95  1  0.97247000  0.17982000  0.96093000  1
  C  C96  1  0.01603000  0.64386000  0.44710000  1
  C  C97  1  0.03684000  0.57888000  0.43140000  1
  C  C98  1  0.05621000  0.43722000  0.42120000  1
  C  C99  1  0.07978000  0.37276000  0.40860000  1
  C  C100  1  0.08540000  0.68240000  0.19060000  1
  C  C101  1  0.08720000  0.44380000  0.08550000  1
  C  C102  1  0.09154000  0.79148000  0.22820000  1
  C  C103  1  0.10400000  0.41380000  0.94120000  1
  C  C104  1  0.14420000  0.56320000  0.45820000  1
  C  C105  1  0.16020000  0.67780000  0.23650000  1
  C  C106  1  0.16580000  0.49320000  0.44410000  1
  C  C107  1  0.16840000  0.79120000  0.27530000  1
  C  C108  1  0.18256000  0.47912000  0.95450000  1
  C  C109  1  0.19991000  0.67962000  0.51180000  1
  C  C110  1  0.20470000  0.90320000  0.47220000  1
  C  C111  1  0.20755000  0.73410000  0.27890000  1
  C  C112  1  0.22923000  0.61546000  0.49940000  1
  C  C113  1  0.27994000  0.66848000  0.88060000  1
  C  C114  1  0.28917000  0.78154000  0.89630000  1
  C  C115  1  0.29201000  0.67122000  0.34080000  1
  C  C116  1  0.29298000  0.37276000  0.90860000  1
  C  C117  1  0.29656000  0.47912000  0.45450000  1
  C  C118  1  0.29805000  0.73150000  0.32640000  1
  C  C119  1  0.30006000  0.20852000  0.27180000  1
  C  C120  1  0.30150000  0.09680000  0.02780000  1
  C  C121  1  0.30980000  0.41380000  0.44120000  1
  C  C122  1  0.31340000  0.95900000  0.47100000  1
  C  C123  1  0.32740000  0.49320000  0.94410000  1
  C  C124  1  0.33916000  0.86792000  0.52460000  1
  C  C125  1  0.35440000  0.04100000  0.02900000  1
  C  C126  1  0.35660000  0.44380000  0.58550000  1
  C  C127  1  0.37217000  0.35614000  0.05290000  1
  C  C128  1  0.37720000  0.20880000  0.22470000  1
  C  C129  1  0.37921000  0.67122000  0.84080000  1
  C  C130  1  0.38101000  0.43722000  0.92120000  1
  C  C131  1  0.38623000  0.61546000  0.99940000  1
  C  C132  1  0.38854000  0.66848000  0.38060000  1
  C  C133  1  0.38939000  0.78838000  0.85600000  1
  C  C134  1  0.39899000  0.78838000  0.35600000  1
  C  C135  1  0.40300000  0.31760000  0.30940000  1
  C  C136  1  0.41900000  0.56320000  0.95820000  1
  C  C137  1  0.43345000  0.73150000  0.82640000  1
  C  C138  1  0.44039000  0.96998000  0.49960000  1
  C  C139  1  0.45263000  0.92126000  0.52510000  1
  C  C140  1  0.45796000  0.42112000  0.06860000  1
  C  C141  1  0.46863000  0.92126000  0.02510000  1
  C  C142  1  0.47041000  0.03002000  0.00040000  1
  C  C143  1  0.47124000  0.13208000  0.97540000  1
  C  C144  1  0.47345000  0.26590000  0.22110000  1
  C  C145  1  0.47971000  0.67962000  0.01180000  1
  C  C146  1  0.48240000  0.32220000  0.26350000  1
  C  C147  1  0.49237000  0.78154000  0.39630000  1
  C  C148  1  0.50763000  0.21846000  0.60370000  1
  C  C149  1  0.51760000  0.67780000  0.73650000  1
  C  C150  1  0.52029000  0.32038000  0.98820000  1
  C  C151  1  0.52655000  0.73410000  0.77890000  1
  C  C152  1  0.52876000  0.86792000  0.02460000  1
  C  C153  1  0.52959000  0.96998000  0.99960000  1
  C  C154  1  0.53137000  0.07874000  0.97490000  1
  C  C155  1  0.54204000  0.57888000  0.93140000  1
  C  C156  1  0.54737000  0.07874000  0.47490000  1
  C  C157  1  0.55961000  0.03002000  0.50040000  1
  C  C158  1  0.56655000  0.26850000  0.17360000  1
  C  C159  1  0.58100000  0.43680000  0.04180000  1
  C  C160  1  0.59700000  0.68240000  0.69060000  1
  C  C161  1  0.60101000  0.21162000  0.64400000  1
  C  C162  1  0.61061000  0.21162000  0.14400000  1
  C  C163  1  0.61146000  0.33152000  0.61940000  1
  C  C164  1  0.61377000  0.38454000  0.00060000  1
  C  C165  1  0.61899000  0.56278000  0.07880000  1
  C  C166  1  0.62079000  0.32878000  0.15920000  1
  C  C167  1  0.62280000  0.79120000  0.77530000  1
  C  C168  1  0.62783000  0.64386000  0.94710000  1
  C  C169  1  0.64340000  0.55620000  0.41450000  1
  C  C170  1  0.64560000  0.95900000  0.97100000  1
  C  C171  1  0.66084000  0.13208000  0.47540000  1
  C  C172  1  0.67260000  0.50680000  0.05590000  1
  C  C173  1  0.68660000  0.04100000  0.52900000  1
  C  C174  1  0.69020000  0.58620000  0.55880000  1
  C  C175  1  0.69850000  0.90320000  0.97220000  1
  C  C176  1  0.69994000  0.79148000  0.72820000  1
  C  C177  1  0.70195000  0.26850000  0.67360000  1
  C  C178  1  0.70344000  0.52088000  0.54550000  1
  C  C179  1  0.70702000  0.62724000  0.09140000  1
  C  C180  1  0.70799000  0.32878000  0.65920000  1
  C  C181  1  0.71083000  0.21846000  0.10370000  1
  C  C182  1  0.72006000  0.33152000  0.11940000  1
  C  C183  1  0.77077000  0.38454000  0.50060000  1
  C  C184  1  0.79245000  0.26590000  0.72110000  1
  C  C185  1  0.79530000  0.09680000  0.52780000  1
  C  C186  1  0.80009000  0.32038000  0.48820000  1
  C  C187  1  0.81744000  0.52088000  0.04550000  1
  C  C188  1  0.83160000  0.20880000  0.72470000  1
  C  C189  1  0.83420000  0.50680000  0.55590000  1
  C  C190  1  0.83980000  0.32220000  0.76350000  1
  C  C191  1  0.85580000  0.43680000  0.54180000  1
  C  C192  1  0.89600000  0.58620000  0.05880000  1
  C  C193  1  0.90846000  0.20852000  0.77180000  1
  C  C194  1  0.91280000  0.55620000  0.91450000  1
  C  C195  1  0.91460000  0.31760000  0.80940000  1
  C  C196  1  0.92022000  0.62724000  0.59140000  1
  C  C197  1  0.94379000  0.56278000  0.57880000  1
  C  C198  1  0.96316000  0.42112000  0.56860000  1
  C  C199  1  0.98397000  0.35614000  0.55290000  1
  S  S200  1  0.03460000  0.18328000  0.40089000  1
  S  S201  1  0.06959000  0.21558000  0.04943000  1
  S  S202  1  0.14599000  0.21558000  0.54943000  1
  S  S203  1  0.14868000  0.18328000  0.90089000  1
  S  S204  1  0.15956000  0.74862000  0.05141000  1
  S  S205  1  0.18168000  0.52236000  0.11019000  1
  S  S206  1  0.34068000  0.52236000  0.61019000  1
  S  S207  1  0.41094000  0.25138000  0.44859000  1
  S  S208  1  0.58906000  0.74862000  0.55141000  1
  S  S209  1  0.65932000  0.47764000  0.38981000  1
  S  S210  1  0.81832000  0.47764000  0.88981000  1
  S  S211  1  0.84044000  0.25138000  0.94859000  1
  S  S212  1  0.85132000  0.81672000  0.09911000  1
  S  S213  1  0.85401000  0.78442000  0.45057000  1
  S  S214  1  0.93041000  0.78442000  0.95057000  1
  S  S215  1  0.96540000  0.81672000  0.59911000  1
  N  N216  1  0.02244000  0.38908000  0.06880000  1
  N  N217  1  0.05194000  0.73848000  0.18550000  1
  N  N218  1  0.09389000  0.69398000  0.48760000  1
  N  N219  1  0.15494000  0.36008000  0.91760000  1
  N  N220  1  0.20514000  0.36008000  0.41760000  1
  N  N221  1  0.21381000  0.85902000  0.50090000  1
  N  N222  1  0.23350000  0.72260000  0.90830000  1
  N  N223  1  0.31346000  0.26152000  0.31450000  1
  N  N224  1  0.35479000  0.14098000  0.99910000  1
  N  N225  1  0.36664000  0.38908000  0.56880000  1
  N  N226  1  0.39991000  0.30602000  0.01240000  1
  N  N227  1  0.48910000  0.72260000  0.40830000  1
  N  N228  1  0.51090000  0.27740000  0.59170000  1
  N  N229  1  0.60009000  0.69398000  0.98760000  1
  N  N230  1  0.63336000  0.61092000  0.43120000  1
  N  N231  1  0.64521000  0.85902000  0.00090000  1
  N  N232  1  0.68654000  0.73848000  0.68550000  1
  N  N233  1  0.76650000  0.27740000  0.09170000  1
  N  N234  1  0.78619000  0.14098000  0.49910000  1
  N  N235  1  0.79486000  0.63992000  0.58240000  1
  N  N236  1  0.84506000  0.63992000  0.08240000  1
  N  N237  1  0.90611000  0.30602000  0.51240000  1
  N  N238  1  0.94806000  0.26152000  0.81450000  1
  N  N239  1  0.97756000  0.61092000  0.93120000  1
