# generated using pymatgen
data_NiH3(C3O2)3
_symmetry_space_group_name_H-M   'P 1'
_cell_length_a   9.96160000
_cell_length_b   9.96160000
_cell_length_c   19.68000000
_cell_angle_alpha   90.00000000
_cell_angle_beta   90.00000000
_cell_angle_gamma   102.87900000
_symmetry_Int_Tables_number   1
_chemical_formula_structural   NiH3(C3O2)3
_chemical_formula_sum   'Ni4 H12 C36 O24'
_cell_volume   1903.78521271
_cell_formula_units_Z   4
loop_
 _symmetry_equiv_pos_site_id
 _symmetry_equiv_pos_as_xyz
  1  'x, y, z'
loop_
 _atom_site_type_symbol
 _atom_site_label
 _atom_site_symmetry_multiplicity
 _atom_site_fract_x
 _atom_site_fract_y
 _atom_site_fract_z
 _atom_site_occupancy
  Ni  Ni0  1  0.43132000  0.31304000  0.26635000  1
  Ni  Ni1  1  0.31304000  0.43132000  0.73365000  1
  Ni  Ni2  1  0.68696000  0.56868000  0.23365000  1
  Ni  Ni3  1  0.56868000  0.68696000  0.76635000  1
  H  H4  1  0.66390000  0.01170000  0.24840000  1
  H  H5  1  0.95110000  0.04890000  0.75000000  1
  H  H6  1  0.32560000  0.28780000  0.10000000  1
  H  H7  1  0.28780000  0.32560000  0.90000000  1
  H  H8  1  0.98830000  0.33610000  0.25160000  1
  H  H9  1  0.41370000  0.41370000  0.50000000  1
  H  H10  1  0.58630000  0.58630000  1.00000000  1
  H  H11  1  0.01170000  0.66390000  0.75160000  1
  H  H12  1  0.71220000  0.67440000  0.40000000  1
  H  H13  1  0.67440000  0.71220000  0.60000000  1
  H  H14  1  0.04890000  0.95110000  0.25000000  1
  H  H15  1  0.33610000  0.98830000  0.74840000  1
  C  C16  1  0.98920000  0.01080000  0.25000000  1
  C  C17  1  0.15110000  0.04190000  0.74950000  1
  C  C18  1  0.75850000  0.04730000  0.24910000  1
  C  C19  1  0.04190000  0.15110000  0.25050000  1
  C  C20  1  0.16810000  0.16810000  1.00000000  1
  C  C21  1  0.81010000  0.18990000  0.25000000  1
  C  C22  1  0.20970000  0.19390000  0.74660000  1
  C  C23  1  0.19390000  0.20970000  0.25340000  1
  C  C24  1  0.95270000  0.24150000  0.25090000  1
  C  C25  1  0.71370000  0.28630000  0.25000000  1
  C  C26  1  0.28890000  0.28890000  1.00000000  1
  C  C27  1  0.35690000  0.33250000  0.05960000  1
  C  C28  1  0.33250000  0.35690000  0.94040000  1
  C  C29  1  0.46970000  0.44050000  0.06100000  1
  C  C30  1  0.50490000  0.44170000  0.37660000  1
  C  C31  1  0.44050000  0.46970000  0.93900000  1
  C  C32  1  0.48850000  0.48850000  0.50000000  1
  C  C33  1  0.55830000  0.49510000  0.12340000  1
  C  C34  1  0.44170000  0.50490000  0.62340000  1
  C  C35  1  0.51150000  0.51150000  1.00000000  1
  C  C36  1  0.55950000  0.53030000  0.43900000  1
  C  C37  1  0.49510000  0.55830000  0.87660000  1
  C  C38  1  0.53030000  0.55950000  0.56100000  1
  C  C39  1  0.66750000  0.64310000  0.44040000  1
  C  C40  1  0.64310000  0.66750000  0.55960000  1
  C  C41  1  0.71110000  0.71110000  0.50000000  1
  C  C42  1  0.28630000  0.71370000  0.75000000  1
  C  C43  1  0.04730000  0.75850000  0.75090000  1
  C  C44  1  0.80610000  0.79030000  0.75340000  1
  C  C45  1  0.79030000  0.80610000  0.24660000  1
  C  C46  1  0.18990000  0.81010000  0.75000000  1
  C  C47  1  0.83190000  0.83190000  0.50000000  1
  C  C48  1  0.95810000  0.84890000  0.75050000  1
  C  C49  1  0.24150000  0.95270000  0.74910000  1
  C  C50  1  0.84890000  0.95810000  0.24950000  1
  C  C51  1  0.01080000  0.98920000  0.75000000  1
  O  O52  1  0.14410000  0.10410000  0.05370000  1
  O  O53  1  0.27830000  0.13790000  0.24020000  1
  O  O54  1  0.10410000  0.14410000  0.94630000  1
  O  O55  1  0.58860000  0.23120000  0.25840000  1
  O  O56  1  0.33670000  0.23910000  0.73260000  1
  O  O57  1  0.13790000  0.27830000  0.75980000  1
  O  O58  1  0.43410000  0.32750000  0.38590000  1
  O  O59  1  0.23910000  0.33670000  0.26740000  1
  O  O60  1  0.76880000  0.41140000  0.24160000  1
  O  O61  1  0.32750000  0.43410000  0.61410000  1
  O  O62  1  0.51180000  0.46420000  0.17930000  1
  O  O63  1  0.53580000  0.48820000  0.32070000  1
  O  O64  1  0.46420000  0.51180000  0.82070000  1
  O  O65  1  0.48820000  0.53580000  0.67930000  1
  O  O66  1  0.67250000  0.56590000  0.11410000  1
  O  O67  1  0.23120000  0.58860000  0.74160000  1
  O  O68  1  0.76090000  0.66330000  0.76740000  1
  O  O69  1  0.56590000  0.67250000  0.88590000  1
  O  O70  1  0.86210000  0.72170000  0.25980000  1
  O  O71  1  0.66330000  0.76090000  0.23260000  1
  O  O72  1  0.41140000  0.76880000  0.75840000  1
  O  O73  1  0.89590000  0.85590000  0.44630000  1
  O  O74  1  0.72170000  0.86210000  0.74020000  1
  O  O75  1  0.85590000  0.89590000  0.55370000  1
