# generated using pymatgen
data_NiH9C8NO4
_symmetry_space_group_name_H-M   'P 1'
_cell_length_a   18.80490000
_cell_length_b   18.80490000
_cell_length_c   18.80490000
_cell_angle_alpha   60.00000000
_cell_angle_beta   60.00000000
_cell_angle_gamma   60.00000000
_symmetry_Int_Tables_number   1
_chemical_formula_structural   NiH9C8NO4
_chemical_formula_sum   'Ni12 H108 C96 N12 O48'
_cell_volume   4702.16740895
_cell_formula_units_Z   12
loop_
 _symmetry_equiv_pos_site_id
 _symmetry_equiv_pos_as_xyz
  1  'x, y, z'
loop_
 _atom_site_type_symbol
 _atom_site_label
 _atom_site_symmetry_multiplicity
 _atom_site_fract_x
 _atom_site_fract_y
 _atom_site_fract_z
 _atom_site_occupancy
  Ni  Ni0  1  0.07214000  0.50000000  0.92786000  1
  Ni  Ni1  1  0.50000000  0.07214000  0.92786000  1
  Ni  Ni2  1  0.50000000  0.50000000  0.92786000  1
  Ni  Ni3  1  0.07214000  0.50000000  0.50000000  1
  Ni  Ni4  1  0.50000000  0.07214000  0.50000000  1
  Ni  Ni5  1  0.07214000  0.92786000  0.50000000  1
  Ni  Ni6  1  0.92786000  0.07214000  0.50000000  1
  Ni  Ni7  1  0.50000000  0.92786000  0.50000000  1
  Ni  Ni8  1  0.92786000  0.50000000  0.50000000  1
  Ni  Ni9  1  0.50000000  0.50000000  0.07214000  1
  Ni  Ni10  1  0.50000000  0.92786000  0.07214000  1
  Ni  Ni11  1  0.92786000  0.50000000  0.07214000  1
  H  H12  1  0.46780000  0.77320000  0.98580000  1
  H  H13  1  0.77320000  0.46780000  0.98580000  1
  H  H14  1  0.77320000  0.77320000  0.98580000  1
  H  H15  1  0.26120000  0.39280000  0.87020000  1
  H  H16  1  0.39280000  0.26120000  0.87020000  1
  H  H17  1  0.26120000  0.47580000  0.87020000  1
  H  H18  1  0.47580000  0.26120000  0.87020000  1
  H  H19  1  0.39280000  0.47580000  0.87020000  1
  H  H20  1  0.47580000  0.39280000  0.87020000  1
  H  H21  1  0.30370000  0.45700000  0.78230000  1
  H  H22  1  0.45700000  0.30370000  0.78230000  1
  H  H23  1  0.45700000  0.45700000  0.78230000  1
  H  H24  1  0.22400000  0.50000000  0.77600000  1
  H  H25  1  0.50000000  0.22400000  0.77600000  1
  H  H26  1  0.50000000  0.50000000  0.77600000  1
  H  H27  1  0.46780000  0.77320000  0.77320000  1
  H  H28  1  0.77320000  0.46780000  0.77320000  1
  H  H29  1  0.46780000  0.98580000  0.77320000  1
  H  H30  1  0.98580000  0.46780000  0.77320000  1
  H  H31  1  0.77320000  0.98580000  0.77320000  1
  H  H32  1  0.98580000  0.77320000  0.77320000  1
  H  H33  1  0.12980000  0.52420000  0.73880000  1
  H  H34  1  0.52420000  0.12980000  0.73880000  1
  H  H35  1  0.12980000  0.60720000  0.73880000  1
  H  H36  1  0.60720000  0.12980000  0.73880000  1
  H  H37  1  0.52420000  0.60720000  0.73880000  1
  H  H38  1  0.60720000  0.52420000  0.73880000  1
  H  H39  1  0.21770000  0.54300000  0.69630000  1
  H  H40  1  0.54300000  0.21770000  0.69630000  1
  H  H41  1  0.54300000  0.54300000  0.69630000  1
  H  H42  1  0.12980000  0.52420000  0.60720000  1
  H  H43  1  0.52420000  0.12980000  0.60720000  1
  H  H44  1  0.12980000  0.73880000  0.60720000  1
  H  H45  1  0.73880000  0.12980000  0.60720000  1
  H  H46  1  0.52420000  0.73880000  0.60720000  1
  H  H47  1  0.73880000  0.52420000  0.60720000  1
  H  H48  1  0.21770000  0.54300000  0.54300000  1
  H  H49  1  0.54300000  0.21770000  0.54300000  1
  H  H50  1  0.21770000  0.69630000  0.54300000  1
  H  H51  1  0.69630000  0.21770000  0.54300000  1
  H  H52  1  0.54300000  0.69630000  0.54300000  1
  H  H53  1  0.69630000  0.54300000  0.54300000  1
  H  H54  1  0.01420000  0.22680000  0.53220000  1
  H  H55  1  0.22680000  0.01420000  0.53220000  1
  H  H56  1  0.22680000  0.22680000  0.53220000  1
  H  H57  1  0.12980000  0.60720000  0.52420000  1
  H  H58  1  0.60720000  0.12980000  0.52420000  1
  H  H59  1  0.12980000  0.73880000  0.52420000  1
  H  H60  1  0.73880000  0.12980000  0.52420000  1
  H  H61  1  0.60720000  0.73880000  0.52420000  1
  H  H62  1  0.73880000  0.60720000  0.52420000  1
  H  H63  1  0.22400000  0.50000000  0.50000000  1
  H  H64  1  0.50000000  0.22400000  0.50000000  1
  H  H65  1  0.22400000  0.77600000  0.50000000  1
  H  H66  1  0.77600000  0.22400000  0.50000000  1
  H  H67  1  0.50000000  0.77600000  0.50000000  1
  H  H68  1  0.77600000  0.50000000  0.50000000  1
  H  H69  1  0.26120000  0.39280000  0.47580000  1
  H  H70  1  0.39280000  0.26120000  0.47580000  1
  H  H71  1  0.26120000  0.87020000  0.47580000  1
  H  H72  1  0.87020000  0.26120000  0.47580000  1
  H  H73  1  0.39280000  0.87020000  0.47580000  1
  H  H74  1  0.87020000  0.39280000  0.47580000  1
  H  H75  1  0.77320000  0.77320000  0.46780000  1
  H  H76  1  0.77320000  0.98580000  0.46780000  1
  H  H77  1  0.98580000  0.77320000  0.46780000  1
  H  H78  1  0.30370000  0.45700000  0.45700000  1
  H  H79  1  0.45700000  0.30370000  0.45700000  1
  H  H80  1  0.30370000  0.78230000  0.45700000  1
  H  H81  1  0.78230000  0.30370000  0.45700000  1
  H  H82  1  0.45700000  0.78230000  0.45700000  1
  H  H83  1  0.78230000  0.45700000  0.45700000  1
  H  H84  1  0.26120000  0.47580000  0.39280000  1
  H  H85  1  0.47580000  0.26120000  0.39280000  1
  H  H86  1  0.26120000  0.87020000  0.39280000  1
  H  H87  1  0.87020000  0.26120000  0.39280000  1
  H  H88  1  0.47580000  0.87020000  0.39280000  1
  H  H89  1  0.87020000  0.47580000  0.39280000  1
  H  H90  1  0.45700000  0.45700000  0.30370000  1
  H  H91  1  0.45700000  0.78230000  0.30370000  1
  H  H92  1  0.78230000  0.45700000  0.30370000  1
  H  H93  1  0.39280000  0.47580000  0.26120000  1
  H  H94  1  0.47580000  0.39280000  0.26120000  1
  H  H95  1  0.39280000  0.87020000  0.26120000  1
  H  H96  1  0.87020000  0.39280000  0.26120000  1
  H  H97  1  0.47580000  0.87020000  0.26120000  1
  H  H98  1  0.87020000  0.47580000  0.26120000  1
  H  H99  1  0.01420000  0.22680000  0.22680000  1
  H  H100  1  0.22680000  0.01420000  0.22680000  1
  H  H101  1  0.01420000  0.53220000  0.22680000  1
  H  H102  1  0.53220000  0.01420000  0.22680000  1
  H  H103  1  0.22680000  0.53220000  0.22680000  1
  H  H104  1  0.53220000  0.22680000  0.22680000  1
  H  H105  1  0.50000000  0.50000000  0.22400000  1
  H  H106  1  0.50000000  0.77600000  0.22400000  1
  H  H107  1  0.77600000  0.50000000  0.22400000  1
  H  H108  1  0.54300000  0.54300000  0.21770000  1
  H  H109  1  0.54300000  0.69630000  0.21770000  1
  H  H110  1  0.69630000  0.54300000  0.21770000  1
  H  H111  1  0.52420000  0.60720000  0.12980000  1
  H  H112  1  0.60720000  0.52420000  0.12980000  1
  H  H113  1  0.52420000  0.73880000  0.12980000  1
  H  H114  1  0.73880000  0.52420000  0.12980000  1
  H  H115  1  0.60720000  0.73880000  0.12980000  1
  H  H116  1  0.73880000  0.60720000  0.12980000  1
  H  H117  1  0.22680000  0.22680000  0.01420000  1
  H  H118  1  0.22680000  0.53220000  0.01420000  1
  H  H119  1  0.53220000  0.22680000  0.01420000  1
  C  C120  1  0.47356000  0.66524000  0.93060000  1
  C  C121  1  0.66524000  0.47356000  0.93060000  1
  C  C122  1  0.47356000  0.93060000  0.93060000  1
  C  C123  1  0.93060000  0.47356000  0.93060000  1
  C  C124  1  0.66524000  0.93060000  0.93060000  1
  C  C125  1  0.93060000  0.66524000  0.93060000  1
  C  C126  1  0.46854000  0.80150000  0.92846000  1
  C  C127  1  0.80150000  0.46854000  0.92846000  1
  C  C128  1  0.80150000  0.80150000  0.92846000  1
  C  C129  1  0.46914000  0.75806000  0.88640000  1
  C  C130  1  0.75806000  0.46914000  0.88640000  1
  C  C131  1  0.46914000  0.88640000  0.88640000  1
  C  C132  1  0.88640000  0.46914000  0.88640000  1
  C  C133  1  0.75806000  0.88640000  0.88640000  1
  C  C134  1  0.88640000  0.75806000  0.88640000  1
  C  C135  1  0.25700000  0.45300000  0.83700000  1
  C  C136  1  0.45300000  0.25700000  0.83700000  1
  C  C137  1  0.45300000  0.45300000  0.83700000  1
  C  C138  1  0.46854000  0.80150000  0.80150000  1
  C  C139  1  0.80150000  0.46854000  0.80150000  1
  C  C140  1  0.46854000  0.92846000  0.80150000  1
  C  C141  1  0.92846000  0.46854000  0.80150000  1
  C  C142  1  0.80150000  0.92846000  0.80150000  1
  C  C143  1  0.92846000  0.80150000  0.80150000  1
  C  C144  1  0.46914000  0.88640000  0.75806000  1
  C  C145  1  0.88640000  0.46914000  0.75806000  1
  C  C146  1  0.88640000  0.88640000  0.75806000  1
  C  C147  1  0.16300000  0.54700000  0.74300000  1
  C  C148  1  0.54700000  0.16300000  0.74300000  1
  C  C149  1  0.54700000  0.54700000  0.74300000  1
  C  C150  1  0.47356000  0.93060000  0.66524000  1
  C  C151  1  0.93060000  0.47356000  0.66524000  1
  C  C152  1  0.93060000  0.93060000  0.66524000  1
  C  C153  1  0.16300000  0.54700000  0.54700000  1
  C  C154  1  0.54700000  0.16300000  0.54700000  1
  C  C155  1  0.16300000  0.74300000  0.54700000  1
  C  C156  1  0.74300000  0.16300000  0.54700000  1
  C  C157  1  0.54700000  0.74300000  0.54700000  1
  C  C158  1  0.74300000  0.54700000  0.54700000  1
  C  C159  1  0.07154000  0.19850000  0.53146000  1
  C  C160  1  0.19850000  0.07154000  0.53146000  1
  C  C161  1  0.19850000  0.19850000  0.53146000  1
  C  C162  1  0.11360000  0.11360000  0.53086000  1
  C  C163  1  0.11360000  0.24194000  0.53086000  1
  C  C164  1  0.24194000  0.11360000  0.53086000  1
  C  C165  1  0.06940000  0.06940000  0.52644000  1
  C  C166  1  0.06940000  0.33476000  0.52644000  1
  C  C167  1  0.33476000  0.06940000  0.52644000  1
  C  C168  1  0.66524000  0.93060000  0.47356000  1
  C  C169  1  0.93060000  0.66524000  0.47356000  1
  C  C170  1  0.93060000  0.93060000  0.47356000  1
  C  C171  1  0.75806000  0.88640000  0.46914000  1
  C  C172  1  0.88640000  0.75806000  0.46914000  1
  C  C173  1  0.88640000  0.88640000  0.46914000  1
  C  C174  1  0.80150000  0.80150000  0.46854000  1
  C  C175  1  0.80150000  0.92846000  0.46854000  1
  C  C176  1  0.92846000  0.80150000  0.46854000  1
  C  C177  1  0.25700000  0.45300000  0.45300000  1
  C  C178  1  0.45300000  0.25700000  0.45300000  1
  C  C179  1  0.25700000  0.83700000  0.45300000  1
  C  C180  1  0.83700000  0.25700000  0.45300000  1
  C  C181  1  0.45300000  0.83700000  0.45300000  1
  C  C182  1  0.83700000  0.45300000  0.45300000  1
  C  C183  1  0.06940000  0.06940000  0.33476000  1
  C  C184  1  0.06940000  0.52644000  0.33476000  1
  C  C185  1  0.52644000  0.06940000  0.33476000  1
  C  C186  1  0.45300000  0.45300000  0.25700000  1
  C  C187  1  0.45300000  0.83700000  0.25700000  1
  C  C188  1  0.83700000  0.45300000  0.25700000  1
  C  C189  1  0.11360000  0.11360000  0.24194000  1
  C  C190  1  0.11360000  0.53086000  0.24194000  1
  C  C191  1  0.53086000  0.11360000  0.24194000  1
  C  C192  1  0.07154000  0.19850000  0.19850000  1
  C  C193  1  0.19850000  0.07154000  0.19850000  1
  C  C194  1  0.07154000  0.53146000  0.19850000  1
  C  C195  1  0.53146000  0.07154000  0.19850000  1
  C  C196  1  0.19850000  0.53146000  0.19850000  1
  C  C197  1  0.53146000  0.19850000  0.19850000  1
  C  C198  1  0.54700000  0.54700000  0.16300000  1
  C  C199  1  0.54700000  0.74300000  0.16300000  1
  C  C200  1  0.74300000  0.54700000  0.16300000  1
  C  C201  1  0.11360000  0.24194000  0.11360000  1
  C  C202  1  0.24194000  0.11360000  0.11360000  1
  C  C203  1  0.11360000  0.53086000  0.11360000  1
  C  C204  1  0.53086000  0.11360000  0.11360000  1
  C  C205  1  0.24194000  0.53086000  0.11360000  1
  C  C206  1  0.53086000  0.24194000  0.11360000  1
  C  C207  1  0.19850000  0.19850000  0.07154000  1
  C  C208  1  0.19850000  0.53146000  0.07154000  1
  C  C209  1  0.53146000  0.19850000  0.07154000  1
  C  C210  1  0.06940000  0.33476000  0.06940000  1
  C  C211  1  0.33476000  0.06940000  0.06940000  1
  C  C212  1  0.06940000  0.52644000  0.06940000  1
  C  C213  1  0.52644000  0.06940000  0.06940000  1
  C  C214  1  0.33476000  0.52644000  0.06940000  1
  C  C215  1  0.52644000  0.33476000  0.06940000  1
  N  N216  1  0.17700000  0.50000000  0.82300000  1
  N  N217  1  0.50000000  0.17700000  0.82300000  1
  N  N218  1  0.50000000  0.50000000  0.82300000  1
  N  N219  1  0.17700000  0.50000000  0.50000000  1
  N  N220  1  0.50000000  0.17700000  0.50000000  1
  N  N221  1  0.17700000  0.82300000  0.50000000  1
  N  N222  1  0.82300000  0.17700000  0.50000000  1
  N  N223  1  0.50000000  0.82300000  0.50000000  1
  N  N224  1  0.82300000  0.50000000  0.50000000  1
  N  N225  1  0.50000000  0.50000000  0.17700000  1
  N  N226  1  0.50000000  0.82300000  0.17700000  1
  N  N227  1  0.82300000  0.50000000  0.17700000  1
  O  O228  1  0.11249000  0.37205000  0.99401000  1
  O  O229  1  0.37205000  0.11249000  0.99401000  1
  O  O230  1  0.11249000  0.52145000  0.99401000  1
  O  O231  1  0.52145000  0.11249000  0.99401000  1
  O  O232  1  0.37205000  0.52145000  0.99401000  1
  O  O233  1  0.52145000  0.37205000  0.99401000  1
  O  O234  1  0.00599000  0.47855000  0.88751000  1
  O  O235  1  0.47855000  0.00599000  0.88751000  1
  O  O236  1  0.00599000  0.62795000  0.88751000  1
  O  O237  1  0.62795000  0.00599000  0.88751000  1
  O  O238  1  0.47855000  0.62795000  0.88751000  1
  O  O239  1  0.62795000  0.47855000  0.88751000  1
  O  O240  1  0.00599000  0.47855000  0.62795000  1
  O  O241  1  0.47855000  0.00599000  0.62795000  1
  O  O242  1  0.00599000  0.88751000  0.62795000  1
  O  O243  1  0.88751000  0.00599000  0.62795000  1
  O  O244  1  0.47855000  0.88751000  0.62795000  1
  O  O245  1  0.88751000  0.47855000  0.62795000  1
  O  O246  1  0.11249000  0.37205000  0.52145000  1
  O  O247  1  0.37205000  0.11249000  0.52145000  1
  O  O248  1  0.11249000  0.99401000  0.52145000  1
  O  O249  1  0.99401000  0.11249000  0.52145000  1
  O  O250  1  0.37205000  0.99401000  0.52145000  1
  O  O251  1  0.99401000  0.37205000  0.52145000  1
  O  O252  1  0.00599000  0.62795000  0.47855000  1
  O  O253  1  0.62795000  0.00599000  0.47855000  1
  O  O254  1  0.00599000  0.88751000  0.47855000  1
  O  O255  1  0.88751000  0.00599000  0.47855000  1
  O  O256  1  0.62795000  0.88751000  0.47855000  1
  O  O257  1  0.88751000  0.62795000  0.47855000  1
  O  O258  1  0.11249000  0.52145000  0.37205000  1
  O  O259  1  0.52145000  0.11249000  0.37205000  1
  O  O260  1  0.11249000  0.99401000  0.37205000  1
  O  O261  1  0.99401000  0.11249000  0.37205000  1
  O  O262  1  0.52145000  0.99401000  0.37205000  1
  O  O263  1  0.99401000  0.52145000  0.37205000  1
  O  O264  1  0.37205000  0.52145000  0.11249000  1
  O  O265  1  0.52145000  0.37205000  0.11249000  1
  O  O266  1  0.37205000  0.99401000  0.11249000  1
  O  O267  1  0.99401000  0.37205000  0.11249000  1
  O  O268  1  0.52145000  0.99401000  0.11249000  1
  O  O269  1  0.99401000  0.52145000  0.11249000  1
  O  O270  1  0.47855000  0.62795000  0.00599000  1
  O  O271  1  0.62795000  0.47855000  0.00599000  1
  O  O272  1  0.47855000  0.88751000  0.00599000  1
  O  O273  1  0.88751000  0.47855000  0.00599000  1
  O  O274  1  0.62795000  0.88751000  0.00599000  1
  O  O275  1  0.88751000  0.62795000  0.00599000  1
