# generated using pymatgen
data_VH4C8O5
_symmetry_space_group_name_H-M   'P 1'
_cell_length_a   6.78490000
_cell_length_b   13.03090000
_cell_length_c   16.85100000
_cell_angle_alpha   90.00000000
_cell_angle_beta   90.00000000
_cell_angle_gamma   90.00000000
_symmetry_Int_Tables_number   1
_chemical_formula_structural   VH4C8O5
_chemical_formula_sum   'V4 H16 C32 O20'
_cell_volume   1489.85341831
_cell_formula_units_Z   4
loop_
 _symmetry_equiv_pos_site_id
 _symmetry_equiv_pos_as_xyz
  1  'x, y, z'
loop_
 _atom_site_type_symbol
 _atom_site_label
 _atom_site_symmetry_multiplicity
 _atom_site_fract_x
 _atom_site_fract_y
 _atom_site_fract_z
 _atom_site_occupancy
  V  V0  1  0.05922000  0.73536000  0.99966000  1
  V  V1  1  0.44078000  0.26464000  0.49966000  1
  V  V2  1  0.55922000  0.76464000  0.00034000  1
  V  V3  1  0.94078000  0.23536000  0.50034000  1
  H  H4  1  0.03040000  0.41720000  0.29610000  1
  H  H5  1  0.03420000  0.42960000  0.69750000  1
  H  H6  1  0.04960000  0.52930000  0.81110000  1
  H  H7  1  0.05140000  0.52070000  0.18500000  1
  H  H8  1  0.44860000  0.47930000  0.68500000  1
  H  H9  1  0.45040000  0.47070000  0.31110000  1
  H  H10  1  0.46580000  0.57040000  0.19750000  1
  H  H11  1  0.46960000  0.58280000  0.79610000  1
  H  H12  1  0.53040000  0.08280000  0.70390000  1
  H  H13  1  0.53420000  0.07040000  0.30250000  1
  H  H14  1  0.54960000  0.97070000  0.18890000  1
  H  H15  1  0.55140000  0.97930000  0.81500000  1
  H  H16  1  0.94860000  0.02070000  0.31500000  1
  H  H17  1  0.95040000  0.02930000  0.68890000  1
  H  H18  1  0.96580000  0.92960000  0.80250000  1
  H  H19  1  0.96960000  0.91720000  0.20390000  1
  C  C20  1  0.06930000  0.01060000  0.29006000  1
  C  C21  1  0.07030000  0.01950000  0.71457000  1
  C  C22  1  0.07980000  0.95910000  0.78213000  1
  C  C23  1  0.08220000  0.94920000  0.22343000  1
  C  C24  1  0.22800000  0.12470000  0.39051000  1
  C  C25  1  0.22960000  0.13230000  0.61301000  1
  C  C26  1  0.23930000  0.06520000  0.68537000  1
  C  C27  1  0.23960000  0.05740000  0.31955000  1
  C  C28  1  0.26040000  0.94260000  0.81955000  1
  C  C29  1  0.26070000  0.93480000  0.18537000  1
  C  C30  1  0.27040000  0.86770000  0.11301000  1
  C  C31  1  0.27200000  0.87530000  0.89051000  1
  C  C32  1  0.41780000  0.05080000  0.72343000  1
  C  C33  1  0.42020000  0.04090000  0.28213000  1
  C  C34  1  0.42970000  0.98050000  0.21457000  1
  C  C35  1  0.43070000  0.98940000  0.79006000  1
  C  C36  1  0.56930000  0.48940000  0.70994000  1
  C  C37  1  0.57030000  0.48050000  0.28543000  1
  C  C38  1  0.57980000  0.54090000  0.21787000  1
  C  C39  1  0.58220000  0.55080000  0.77657000  1
  C  C40  1  0.72800000  0.37530000  0.60949000  1
  C  C41  1  0.72960000  0.36770000  0.38699000  1
  C  C42  1  0.73930000  0.43480000  0.31463000  1
  C  C43  1  0.73960000  0.44260000  0.68045000  1
  C  C44  1  0.76040000  0.55740000  0.18045000  1
  C  C45  1  0.76070000  0.56520000  0.81463000  1
  C  C46  1  0.77040000  0.63230000  0.88699000  1
  C  C47  1  0.77200000  0.62470000  0.10949000  1
  C  C48  1  0.91780000  0.44920000  0.27657000  1
  C  C49  1  0.92020000  0.45910000  0.71787000  1
  C  C50  1  0.92970000  0.51950000  0.78543000  1
  C  C51  1  0.93070000  0.51060000  0.20994000  1
  O  O52  1  0.05960000  0.15103000  0.58604000  1
  O  O53  1  0.06040000  0.14397000  0.41872000  1
  O  O54  1  0.10990000  0.83489000  0.08593000  1
  O  O55  1  0.11100000  0.84023000  0.91691000  1
  O  O56  1  0.22116000  0.31290000  0.49881000  1
  O  O57  1  0.27884000  0.68710000  0.99881000  1
  O  O58  1  0.38900000  0.15977000  0.41691000  1
  O  O59  1  0.39010000  0.16511000  0.58593000  1
  O  O60  1  0.43960000  0.85603000  0.91872000  1
  O  O61  1  0.44040000  0.84897000  0.08604000  1
  O  O62  1  0.55960000  0.34897000  0.41396000  1
  O  O63  1  0.56040000  0.35603000  0.58128000  1
  O  O64  1  0.60990000  0.66511000  0.91407000  1
  O  O65  1  0.61100000  0.65977000  0.08309000  1
  O  O66  1  0.72116000  0.18710000  0.50119000  1
  O  O67  1  0.77884000  0.81290000  0.00119000  1
  O  O68  1  0.88900000  0.34023000  0.58309000  1
  O  O69  1  0.89010000  0.33489000  0.41407000  1
  O  O70  1  0.93960000  0.64397000  0.08128000  1
  O  O71  1  0.94040000  0.65103000  0.91396000  1
