# generated using pymatgen
data_LaH7C15O7
_symmetry_space_group_name_H-M   'P 1'
_cell_length_a   9.36000000
_cell_length_b   9.93600000
_cell_length_c   11.38400000
_cell_angle_alpha   93.18200000
_cell_angle_beta   97.61700000
_cell_angle_gamma   110.27100000
_symmetry_Int_Tables_number   1
_chemical_formula_structural   LaH7C15O7
_chemical_formula_sum   'La2 H14 C30 O14'
_cell_volume   978.51195067
_cell_formula_units_Z   2
loop_
 _symmetry_equiv_pos_site_id
 _symmetry_equiv_pos_as_xyz
  1  'x, y, z'
loop_
 _atom_site_type_symbol
 _atom_site_label
 _atom_site_symmetry_multiplicity
 _atom_site_fract_x
 _atom_site_fract_y
 _atom_site_fract_z
 _atom_site_occupancy
  La  La0  1  0.28439000  0.04801000  0.98309000  1
  La  La1  1  0.71561000  0.95199000  0.01691000  1
  H  H2  1  0.07020000  0.10710000  0.42570000  1
  H  H3  1  0.08580000  0.63550000  0.83520000  1
  H  H4  1  0.16040000  0.22840000  0.61510000  1
  H  H5  1  0.17050000  0.59910000  0.42890000  1
  H  H6  1  0.19040000  0.78380000  0.22070000  1
  H  H7  1  0.25900000  0.72260000  0.61850000  1
  H  H8  1  0.31330000  0.49410000  0.03440000  1
  H  H9  1  0.68670000  0.50590000  0.96560000  1
  H  H10  1  0.74100000  0.27740000  0.38150000  1
  H  H11  1  0.80960000  0.21620000  0.77930000  1
  H  H12  1  0.82950000  0.40090000  0.57110000  1
  H  H13  1  0.83960000  0.77160000  0.38490000  1
  H  H14  1  0.91420000  0.36450000  0.16480000  1
  H  H15  1  0.92980000  0.89290000  0.57430000  1
  C  C16  1  0.00430000  0.32400000  0.61140000  1
  C  C17  1  0.00550000  0.43700000  0.15560000  1
  C  C18  1  0.02070000  0.16480000  0.45570000  1
  C  C19  1  0.04200000  0.57450000  0.20700000  1
  C  C20  1  0.07180000  0.25810000  0.02960000  1
  C  C21  1  0.07560000  0.23800000  0.56870000  1
  C  C22  1  0.10670000  0.82380000  0.61350000  1
  C  C23  1  0.10800000  0.40720000  0.08900000  1
  C  C24  1  0.12290000  0.65910000  0.45810000  1
  C  C25  1  0.17080000  0.91080000  0.73220000  1
  C  C26  1  0.17280000  0.68950000  0.19050000  1
  C  C27  1  0.17580000  0.73360000  0.57090000  1
  C  C28  1  0.24360000  0.51530000  0.07630000  1
  C  C29  1  0.27620000  0.65590000  0.12620000  1
  C  C30  1  0.42170000  0.77350000  0.10770000  1
  C  C31  1  0.57830000  0.22650000  0.89230000  1
  C  C32  1  0.72380000  0.34410000  0.87380000  1
  C  C33  1  0.75640000  0.48470000  0.92370000  1
  C  C34  1  0.82420000  0.26640000  0.42910000  1
  C  C35  1  0.82720000  0.31050000  0.80950000  1
  C  C36  1  0.82920000  0.08920000  0.26780000  1
  C  C37  1  0.87710000  0.34090000  0.54190000  1
  C  C38  1  0.89200000  0.59280000  0.91100000  1
  C  C39  1  0.89330000  0.17620000  0.38650000  1
  C  C40  1  0.92440000  0.76200000  0.43130000  1
  C  C41  1  0.92820000  0.74190000  0.97040000  1
  C  C42  1  0.95800000  0.42550000  0.79300000  1
  C  C43  1  0.97930000  0.83520000  0.54430000  1
  C  C44  1  0.99450000  0.56300000  0.84440000  1
  C  C45  1  0.99570000  0.67600000  0.38860000  1
  O  O46  1  0.05800000  0.83610000  0.97020000  1
  O  O47  1  0.06230000  0.39780000  0.72480000  1
  O  O48  1  0.11380000  0.99840000  0.77110000  1
  O  O49  1  0.17780000  0.23590000  0.98130000  1
  O  O50  1  0.28640000  0.89390000  0.79570000  1
  O  O51  1  0.41680000  0.89460000  0.07820000  1
  O  O52  1  0.45550000  0.25440000  0.88160000  1
  O  O53  1  0.54450000  0.74560000  0.11840000  1
  O  O54  1  0.58320000  0.10540000  0.92180000  1
  O  O55  1  0.71360000  0.10610000  0.20430000  1
  O  O56  1  0.82220000  0.76410000  0.01870000  1
  O  O57  1  0.88620000  0.00160000  0.22890000  1
  O  O58  1  0.93770000  0.60220000  0.27520000  1
  O  O59  1  0.94200000  0.16390000  0.02980000  1
