# generated using pymatgen
data_ZnH10C17N3O4
_symmetry_space_group_name_H-M   'P 1'
_cell_length_a   11.72100000
_cell_length_b   14.95460000
_cell_length_c   14.95460000
_cell_angle_alpha   96.44850000
_cell_angle_beta   107.06000000
_cell_angle_gamma   107.06000000
_symmetry_Int_Tables_number   1
_chemical_formula_structural   ZnH10C17N3O4
_chemical_formula_sum   'Zn4 H40 C68 N12 O16'
_cell_volume   2338.56024421
_cell_formula_units_Z   4
loop_
 _symmetry_equiv_pos_site_id
 _symmetry_equiv_pos_as_xyz
  1  'x, y, z'
loop_
 _atom_site_type_symbol
 _atom_site_label
 _atom_site_symmetry_multiplicity
 _atom_site_fract_x
 _atom_site_fract_y
 _atom_site_fract_z
 _atom_site_occupancy
  Zn  Zn0  1  0.11810000  0.19457000  0.43919000  1
  Zn  Zn1  1  0.11810000  0.43919000  0.19457000  1
  Zn  Zn2  1  0.88190000  0.56081000  0.80543000  1
  Zn  Zn3  1  0.88190000  0.80543000  0.56081000  1
  H  H4  1  0.04840000  0.15200000  0.62020000  1
  H  H5  1  0.04840000  0.62020000  0.15200000  1
  H  H6  1  0.08050000  0.50980000  0.74040000  1
  H  H7  1  0.08050000  0.74040000  0.50980000  1
  H  H8  1  0.10490000  0.63950000  0.98870000  1
  H  H9  1  0.10490000  0.98870000  0.63950000  1
  H  H10  1  0.12840000  0.20490000  0.78350000  1
  H  H11  1  0.12840000  0.78350000  0.20490000  1
  H  H12  1  0.19260000  0.34240000  0.91740000  1
  H  H13  1  0.19260000  0.91740000  0.34240000  1
  H  H14  1  0.29300000  0.53070000  0.79570000  1
  H  H15  1  0.29300000  0.79570000  0.53070000  1
  H  H16  1  0.31480000  0.05030000  0.66150000  1
  H  H17  1  0.31480000  0.66150000  0.05030000  1
  H  H18  1  0.35540000  0.32190000  0.59510000  1
  H  H19  1  0.35540000  0.59510000  0.32190000  1
  H  H20  1  0.44510000  0.37550000  0.75610000  1
  H  H21  1  0.44510000  0.75610000  0.37550000  1
  H  H22  1  0.49550000  0.56850000  0.84690000  1
  H  H23  1  0.49550000  0.84690000  0.56850000  1
  H  H24  1  0.50450000  0.15310000  0.43150000  1
  H  H25  1  0.50450000  0.43150000  0.15310000  1
  H  H26  1  0.55490000  0.24390000  0.62450000  1
  H  H27  1  0.55490000  0.62450000  0.24390000  1
  H  H28  1  0.64460000  0.40490000  0.67810000  1
  H  H29  1  0.64460000  0.67810000  0.40490000  1
  H  H30  1  0.68520000  0.33850000  0.94970000  1
  H  H31  1  0.68520000  0.94970000  0.33850000  1
  H  H32  1  0.70700000  0.20430000  0.46930000  1
  H  H33  1  0.70700000  0.46930000  0.20430000  1
  H  H34  1  0.80740000  0.08260000  0.65760000  1
  H  H35  1  0.80740000  0.65760000  0.08260000  1
  H  H36  1  0.87160000  0.21650000  0.79510000  1
  H  H37  1  0.87160000  0.79510000  0.21650000  1
  H  H38  1  0.89510000  0.01130000  0.36050000  1
  H  H39  1  0.89510000  0.36050000  0.01130000  1
  H  H40  1  0.91950000  0.25960000  0.49020000  1
  H  H41  1  0.91950000  0.49020000  0.25960000  1
  H  H42  1  0.95160000  0.37980000  0.84800000  1
  H  H43  1  0.95160000  0.84800000  0.37980000  1
  C  C44  1  0.08760000  0.27260000  0.27260000  1
  C  C45  1  0.12860000  0.54130000  0.80370000  1
  C  C46  1  0.12860000  0.80370000  0.54130000  1
  C  C47  1  0.12880000  0.19860000  0.64820000  1
  C  C48  1  0.12880000  0.64820000  0.19860000  1
  C  C49  1  0.13330000  0.35820000  0.35820000  1
  C  C50  1  0.14310000  0.61690000  0.94910000  1
  C  C51  1  0.14310000  0.94910000  0.61690000  1
  C  C52  1  0.17640000  0.22950000  0.74650000  1
  C  C53  1  0.17640000  0.74650000  0.22950000  1
  C  C54  1  0.25660000  0.55340000  0.83660000  1
  C  C55  1  0.25660000  0.83660000  0.55340000  1
  C  C56  1  0.25960000  0.10380000  0.41660000  1
  C  C57  1  0.25960000  0.41660000  0.10380000  1
  C  C58  1  0.26950000  0.63070000  0.98650000  1
  C  C59  1  0.26950000  0.98650000  0.63070000  1
  C  C60  1  0.27900000  0.35470000  0.94730000  1
  C  C61  1  0.27900000  0.94730000  0.35470000  1
  C  C62  1  0.29710000  0.29810000  0.78970000  1
  C  C63  1  0.29710000  0.78970000  0.29810000  1
  C  C64  1  0.30940000  0.29770000  0.63350000  1
  C  C65  1  0.30940000  0.63350000  0.29770000  1
  C  C66  1  0.33030000  0.59960000  0.93040000  1
  C  C67  1  0.33030000  0.93040000  0.59960000  1
  C  C68  1  0.33620000  0.04450000  0.39290000  1
  C  C69  1  0.33620000  0.39290000  0.04450000  1
  C  C70  1  0.35210000  0.33510000  0.89450000  1
  C  C71  1  0.35210000  0.89450000  0.33510000  1
  C  C72  1  0.36330000  0.33080000  0.73000000  1
  C  C73  1  0.36330000  0.73000000  0.33080000  1
  C  C74  1  0.46410000  0.08740000  0.40780000  1
  C  C75  1  0.46410000  0.40780000  0.08740000  1
  C  C76  1  0.46840000  0.61350000  0.97110000  1
  C  C77  1  0.46840000  0.97110000  0.61350000  1
  C  C78  1  0.53160000  0.02890000  0.38650000  1
  C  C79  1  0.53160000  0.38650000  0.02890000  1
  C  C80  1  0.53590000  0.59220000  0.91260000  1
  C  C81  1  0.53590000  0.91260000  0.59220000  1
  C  C82  1  0.63670000  0.27000000  0.66920000  1
  C  C83  1  0.63670000  0.66920000  0.27000000  1
  C  C84  1  0.64790000  0.10550000  0.66490000  1
  C  C85  1  0.64790000  0.66490000  0.10550000  1
  C  C86  1  0.66380000  0.60710000  0.95550000  1
  C  C87  1  0.66380000  0.95550000  0.60710000  1
  C  C88  1  0.66970000  0.06960000  0.40040000  1
  C  C89  1  0.66970000  0.40040000  0.06960000  1
  C  C90  1  0.69060000  0.36650000  0.70230000  1
  C  C91  1  0.69060000  0.70230000  0.36650000  1
  C  C92  1  0.70290000  0.21030000  0.70190000  1
  C  C93  1  0.70290000  0.70190000  0.21030000  1
  C  C94  1  0.72100000  0.05270000  0.64530000  1
  C  C95  1  0.72100000  0.64530000  0.05270000  1
  C  C96  1  0.73050000  0.01350000  0.36930000  1
  C  C97  1  0.73050000  0.36930000  0.01350000  1
  C  C98  1  0.74040000  0.58340000  0.89620000  1
  C  C99  1  0.74040000  0.89620000  0.58340000  1
  C  C100  1  0.74340000  0.16340000  0.44660000  1
  C  C101  1  0.74340000  0.44660000  0.16340000  1
  C  C102  1  0.82360000  0.25350000  0.77050000  1
  C  C103  1  0.82360000  0.77050000  0.25350000  1
  C  C104  1  0.85690000  0.05090000  0.38310000  1
  C  C105  1  0.85690000  0.38310000  0.05090000  1
  C  C106  1  0.86670000  0.64180000  0.64180000  1
  C  C107  1  0.87120000  0.35180000  0.80140000  1
  C  C108  1  0.87120000  0.80140000  0.35180000  1
  C  C109  1  0.87140000  0.19630000  0.45870000  1
  C  C110  1  0.87140000  0.45870000  0.19630000  1
  C  C111  1  0.91240000  0.72740000  0.72740000  1
  N  N112  1  0.07160000  0.57278000  0.85878000  1
  N  N113  1  0.07160000  0.85878000  0.57278000  1
  N  N114  1  0.19260000  0.23192000  0.59102000  1
  N  N115  1  0.19260000  0.59102000  0.23192000  1
  N  N116  1  0.47700000  0.35163000  0.93477000  1
  N  N117  1  0.47700000  0.93477000  0.35163000  1
  N  N118  1  0.52300000  0.06523000  0.64837000  1
  N  N119  1  0.52300000  0.64837000  0.06523000  1
  N  N120  1  0.80740000  0.40898000  0.76808000  1
  N  N121  1  0.80740000  0.76808000  0.40898000  1
  N  N122  1  0.92840000  0.14122000  0.42722000  1
  N  N123  1  0.92840000  0.42722000  0.14122000  1
  O  O124  1  0.07070000  0.19183000  0.29135000  1
  O  O125  1  0.07070000  0.29135000  0.19183000  1
  O  O126  1  0.14800000  0.06044000  0.41172000  1
  O  O127  1  0.14800000  0.41172000  0.06044000  1
  O  O128  1  0.15000000  0.34012000  0.44018000  1
  O  O129  1  0.15000000  0.44018000  0.34012000  1
  O  O130  1  0.31020000  0.19220000  0.44040000  1
  O  O131  1  0.31020000  0.44040000  0.19220000  1
  O  O132  1  0.68980000  0.55960000  0.80780000  1
  O  O133  1  0.68980000  0.80780000  0.55960000  1
  O  O134  1  0.85000000  0.55982000  0.65988000  1
  O  O135  1  0.85000000  0.65988000  0.55982000  1
  O  O136  1  0.85200000  0.58828000  0.93956000  1
  O  O137  1  0.85200000  0.93956000  0.58828000  1
  O  O138  1  0.92930000  0.70865000  0.80817000  1
  O  O139  1  0.92930000  0.80817000  0.70865000  1
