# generated using pymatgen
data_HoCuH9C16(NO5)2
_symmetry_space_group_name_H-M   'P 1'
_cell_length_a   10.79200000
_cell_length_b   13.88900000
_cell_length_c   19.73900000
_cell_angle_alpha   90.00000000
_cell_angle_beta   100.91000000
_cell_angle_gamma   90.00000000
_symmetry_Int_Tables_number   1
_chemical_formula_structural   HoCuH9C16(NO5)2
_chemical_formula_sum   'Ho4 Cu4 H36 C64 N8 O40'
_cell_volume   2905.20435234
_cell_formula_units_Z   4
loop_
 _symmetry_equiv_pos_site_id
 _symmetry_equiv_pos_as_xyz
  1  'x, y, z'
loop_
 _atom_site_type_symbol
 _atom_site_label
 _atom_site_symmetry_multiplicity
 _atom_site_fract_x
 _atom_site_fract_y
 _atom_site_fract_z
 _atom_site_occupancy
  Ho  Ho0  1  0.15432000  0.56839000  0.05714000  1
  Ho  Ho1  1  0.15432000  0.93161000  0.55714000  1
  Ho  Ho2  1  0.84568000  0.06839000  0.44285000  1
  Ho  Ho3  1  0.84568000  0.43161000  0.94285000  1
  Cu  Cu4  1  0.24238000  0.06994000  0.21499000  1
  Cu  Cu5  1  0.24238000  0.43006000  0.71499000  1
  Cu  Cu6  1  0.75762000  0.56994000  0.28501000  1
  Cu  Cu7  1  0.75762000  0.93006000  0.78501000  1
  H  H8  1  0.02650000  0.12980000  0.28630000  1
  H  H9  1  0.02650000  0.37020000  0.78630000  1
  H  H10  1  0.10420000  0.73740000  0.71280000  1
  H  H11  1  0.10420000  0.76260000  0.21280000  1
  H  H12  1  0.21380000  0.23760000  0.66320000  1
  H  H13  1  0.21380000  0.26240000  0.16320000  1
  H  H14  1  0.21790000  0.24720000  0.95360000  1
  H  H15  1  0.21790000  0.25280000  0.45360000  1
  H  H16  1  0.23350000  0.61290000  0.64010000  1
  H  H17  1  0.23350000  0.88710000  0.14010000  1
  H  H18  1  0.26710000  0.15290000  0.43270000  1
  H  H19  1  0.26710000  0.34710000  0.93270000  1
  H  H20  1  0.27110000  0.17720000  0.51070000  1
  H  H21  1  0.27110000  0.32280000  0.01070000  1
  H  H22  1  0.38580000  0.14110000  0.71270000  1
  H  H23  1  0.38580000  0.35890000  0.21270000  1
  H  H24  1  0.50000000  0.00100000  0.72000000  1
  H  H25  1  0.50000000  0.49900000  0.22000000  1
  H  H26  1  0.50000000  0.50100000  0.78000000  1
  H  H27  1  0.50000000  0.99900000  0.28000000  1
  H  H28  1  0.61420000  0.64110000  0.78730000  1
  H  H29  1  0.61420000  0.85890000  0.28730000  1
  H  H30  1  0.72890000  0.67720000  0.98930000  1
  H  H31  1  0.72890000  0.82280000  0.48930000  1
  H  H32  1  0.73290000  0.65290000  0.06730000  1
  H  H33  1  0.73290000  0.84710000  0.56730000  1
  H  H34  1  0.76650000  0.11290000  0.85990000  1
  H  H35  1  0.76650000  0.38710000  0.35990000  1
  H  H36  1  0.78210000  0.74720000  0.54640000  1
  H  H37  1  0.78210000  0.75280000  0.04640000  1
  H  H38  1  0.78620000  0.73760000  0.83680000  1
  H  H39  1  0.78620000  0.76240000  0.33680000  1
  H  H40  1  0.89580000  0.23740000  0.78720000  1
  H  H41  1  0.89580000  0.26260000  0.28720000  1
  H  H42  1  0.97350000  0.62980000  0.21370000  1
  H  H43  1  0.97350000  0.87020000  0.71370000  1
  C  C44  1  0.01720000  0.65220000  0.77300000  1
  C  C45  1  0.01720000  0.84780000  0.27300000  1
  C  C46  1  0.03880000  0.73530000  0.73740000  1
  C  C47  1  0.03880000  0.76470000  0.23740000  1
  C  C48  1  0.03920000  0.18410000  0.26100000  1
  C  C49  1  0.03920000  0.31590000  0.76100000  1
  C  C50  1  0.08360000  0.15170000  0.69230000  1
  C  C51  1  0.08360000  0.34830000  0.19230000  1
  C  C52  1  0.09680000  0.14450000  0.45960000  1
  C  C53  1  0.09680000  0.35550000  0.95960000  1
  C  C54  1  0.10990000  0.56910000  0.77410000  1
  C  C55  1  0.10990000  0.93090000  0.27410000  1
  C  C56  1  0.11930000  0.06750000  0.65210000  1
  C  C57  1  0.11930000  0.43250000  0.15210000  1
  C  C58  1  0.15140000  0.23680000  0.69000000  1
  C  C59  1  0.15140000  0.26320000  0.19000000  1
  C  C60  1  0.22440000  0.18540000  0.46460000  1
  C  C61  1  0.22440000  0.31460000  0.96460000  1
  C  C62  1  0.30650000  0.71240000  0.13090000  1
  C  C63  1  0.30650000  0.78760000  0.63090000  1
  C  C64  1  0.30960000  0.61970000  0.67090000  1
  C  C65  1  0.30960000  0.88030000  0.17090000  1
  C  C66  1  0.37230000  0.70750000  0.67410000  1
  C  C67  1  0.37230000  0.79250000  0.17410000  1
  C  C68  1  0.43250000  0.19340000  0.28170000  1
  C  C69  1  0.43250000  0.30660000  0.78170000  1
  C  C70  1  0.46360000  0.13770000  0.74240000  1
  C  C71  1  0.46360000  0.36230000  0.24240000  1
  C  C72  1  0.46720000  0.55320000  0.75290000  1
  C  C73  1  0.46720000  0.94680000  0.25290000  1
  C  C74  1  0.49040000  0.71740000  0.71810000  1
  C  C75  1  0.49040000  0.78260000  0.21810000  1
  C  C76  1  0.50960000  0.21740000  0.78190000  1
  C  C77  1  0.50960000  0.28260000  0.28190000  1
  C  C78  1  0.53280000  0.05320000  0.74710000  1
  C  C79  1  0.53280000  0.44680000  0.24710000  1
  C  C80  1  0.53640000  0.63770000  0.75760000  1
  C  C81  1  0.53640000  0.86230000  0.25760000  1
  C  C82  1  0.56750000  0.69340000  0.21830000  1
  C  C83  1  0.56750000  0.80660000  0.71830000  1
  C  C84  1  0.62770000  0.20750000  0.82590000  1
  C  C85  1  0.62770000  0.29250000  0.32590000  1
  C  C86  1  0.69040000  0.11970000  0.82910000  1
  C  C87  1  0.69040000  0.38030000  0.32910000  1
  C  C88  1  0.69350000  0.21240000  0.36910000  1
  C  C89  1  0.69350000  0.28760000  0.86910000  1
  C  C90  1  0.77560000  0.68540000  0.03540000  1
  C  C91  1  0.77560000  0.81460000  0.53540000  1
  C  C92  1  0.84860000  0.73680000  0.81000000  1
  C  C93  1  0.84860000  0.76320000  0.31000000  1
  C  C94  1  0.88070000  0.56750000  0.84790000  1
  C  C95  1  0.88070000  0.93250000  0.34790000  1
  C  C96  1  0.89010000  0.06910000  0.72590000  1
  C  C97  1  0.89010000  0.43090000  0.22590000  1
  C  C98  1  0.90320000  0.64450000  0.04040000  1
  C  C99  1  0.90320000  0.85550000  0.54040000  1
  C  C100  1  0.91640000  0.65170000  0.80770000  1
  C  C101  1  0.91640000  0.84830000  0.30770000  1
  C  C102  1  0.96080000  0.68410000  0.23900000  1
  C  C103  1  0.96080000  0.81590000  0.73900000  1
  C  C104  1  0.96120000  0.23530000  0.76260000  1
  C  C105  1  0.96120000  0.26470000  0.26260000  1
  C  C106  1  0.98280000  0.15220000  0.72700000  1
  C  C107  1  0.98280000  0.34780000  0.22700000  1
  N  N108  1  0.13220000  0.18300000  0.22380000  1
  N  N109  1  0.13220000  0.31700000  0.72380000  1
  N  N110  1  0.35490000  0.54380000  0.71080000  1
  N  N111  1  0.35490000  0.95620000  0.21080000  1
  N  N112  1  0.64510000  0.04380000  0.78920000  1
  N  N113  1  0.64510000  0.45620000  0.28920000  1
  N  N114  1  0.86780000  0.68300000  0.27620000  1
  N  N115  1  0.86780000  0.81700000  0.77620000  1
  O  O116  1  0.00070000  0.69120000  0.06980000  1
  O  O117  1  0.00070000  0.80880000  0.56980000  1
  O  O118  1  0.05780000  0.50910000  0.15100000  1
  O  O119  1  0.05780000  0.99090000  0.65100000  1
  O  O120  1  0.08010000  0.06090000  0.48210000  1
  O  O121  1  0.08010000  0.43910000  0.98210000  1
  O  O122  1  0.09920000  0.52020000  0.71920000  1
  O  O123  1  0.09920000  0.97980000  0.21920000  1
  O  O124  1  0.19230000  0.55910000  0.82540000  1
  O  O125  1  0.19230000  0.94090000  0.32540000  1
  O  O126  1  0.21210000  0.07640000  0.62300000  1
  O  O127  1  0.21210000  0.42360000  0.12300000  1
  O  O128  1  0.26490000  0.72560000  0.06840000  1
  O  O129  1  0.26490000  0.77440000  0.56840000  1
  O  O130  1  0.28550000  0.63370000  0.16110000  1
  O  O131  1  0.28550000  0.86630000  0.66110000  1
  O  O132  1  0.38690000  0.15950000  0.22080000  1
  O  O133  1  0.38690000  0.34050000  0.72080000  1
  O  O134  1  0.41570000  0.16000000  0.33630000  1
  O  O135  1  0.41570000  0.34000000  0.83630000  1
  O  O136  1  0.58430000  0.66000000  0.16370000  1
  O  O137  1  0.58430000  0.84000000  0.66370000  1
  O  O138  1  0.61310000  0.65950000  0.27920000  1
  O  O139  1  0.61310000  0.84050000  0.77920000  1
  O  O140  1  0.71450000  0.13370000  0.33890000  1
  O  O141  1  0.71450000  0.36630000  0.83890000  1
  O  O142  1  0.73510000  0.22560000  0.43160000  1
  O  O143  1  0.73510000  0.27440000  0.93160000  1
  O  O144  1  0.78790000  0.57640000  0.87700000  1
  O  O145  1  0.78790000  0.92360000  0.37700000  1
  O  O146  1  0.80770000  0.05910000  0.67460000  1
  O  O147  1  0.80770000  0.44090000  0.17460000  1
  O  O148  1  0.90080000  0.02020000  0.78080000  1
  O  O149  1  0.90080000  0.47980000  0.28080000  1
  O  O150  1  0.91990000  0.56090000  0.01790000  1
  O  O151  1  0.91990000  0.93910000  0.51790000  1
  O  O152  1  0.94220000  0.00910000  0.34900000  1
  O  O153  1  0.94220000  0.49090000  0.84900000  1
  O  O154  1  0.99930000  0.19120000  0.43020000  1
  O  O155  1  0.99930000  0.30880000  0.93020000  1
