# generated using pymatgen
data_Eu2H36(C17O4)3
_symmetry_space_group_name_H-M   'P 1'
_cell_length_a   11.44220000
_cell_length_b   13.64990000
_cell_length_c   23.97690000
_cell_angle_alpha   92.91500000
_cell_angle_beta   103.67100000
_cell_angle_gamma   112.82100000
_symmetry_Int_Tables_number   1
_chemical_formula_structural   Eu2H36(C17O4)3
_chemical_formula_sum   'Eu4 H72 C102 O24'
_cell_volume   3311.15881837
_cell_formula_units_Z   2
loop_
 _symmetry_equiv_pos_site_id
 _symmetry_equiv_pos_as_xyz
  1  'x, y, z'
loop_
 _atom_site_type_symbol
 _atom_site_label
 _atom_site_symmetry_multiplicity
 _atom_site_fract_x
 _atom_site_fract_y
 _atom_site_fract_z
 _atom_site_occupancy
  Eu  Eu0  1  0.35440000  0.40266000  0.03808000  1
  Eu  Eu1  1  0.37634000  0.29865000  0.51752000  1
  Eu  Eu2  1  0.62366000  0.70135000  0.48248000  1
  Eu  Eu3  1  0.64560000  0.59734000  0.96192000  1
  H  H4  1  0.03280000  0.11950000  0.21010000  1
  H  H5  1  0.03360000  0.91130000  0.16940000  1
  H  H6  1  0.04440000  0.39840000  0.86120000  1
  H  H7  1  0.05630000  0.87400000  0.23070000  1
  H  H8  1  0.05730000  0.01770000  0.56070000  1
  H  H9  1  0.06800000  0.72370000  0.69560000  1
  H  H10  1  0.07370000  0.95540000  0.84600000  1
  H  H11  1  0.08730000  0.67870000  0.28670000  1
  H  H12  1  0.10700000  0.30660000  0.38380000  1
  H  H13  1  0.11680000  0.91770000  0.79400000  1
  H  H14  1  0.13070000  0.72560000  0.23260000  1
  H  H15  1  0.13270000  0.10530000  0.32080000  1
  H  H16  1  0.13400000  0.99380000  0.22440000  1
  H  H17  1  0.21160000  0.62150000  0.16950000  1
  H  H18  1  0.21510000  0.16780000  0.88340000  1
  H  H19  1  0.21950000  0.51400000  0.18630000  1
  H  H20  1  0.22780000  0.14880000  0.63310000  1
  H  H21  1  0.23590000  0.72370000  0.28760000  1
  H  H22  1  0.24940000  0.71030000  0.78940000  1
  H  H23  1  0.30410000  0.89370000  0.19750000  1
  H  H24  1  0.31440000  0.62370000  0.22670000  1
  H  H25  1  0.31510000  0.88670000  0.74110000  1
  H  H26  1  0.32140000  0.58300000  0.33720000  1
  H  H27  1  0.34440000  0.00770000  0.75940000  1
  H  H28  1  0.34530000  0.33270000  0.24290000  1
  H  H29  1  0.36520000  0.24730000  0.32030000  1
  H  H30  1  0.36830000  0.66070000  0.86450000  1
  H  H31  1  0.37170000  0.93840000  0.80730000  1
  H  H32  1  0.38350000  0.93700000  0.15210000  1
  H  H33  1  0.40600000  0.27330000  0.73390000  1
  H  H34  1  0.41260000  0.11580000  0.40030000  1
  H  H35  1  0.42010000  0.86180000  0.19390000  1
  H  H36  1  0.43550000  0.13340000  0.14980000  1
  H  H37  1  0.46780000  0.12780000  0.69020000  1
  H  H38  1  0.46780000  0.99300000  0.45030000  1
  H  H39  1  0.48520000  0.63760000  0.17390000  1
  H  H40  1  0.51480000  0.36240000  0.82610000  1
  H  H41  1  0.53220000  0.00700000  0.54970000  1
  H  H42  1  0.53220000  0.87220000  0.30980000  1
  H  H43  1  0.56450000  0.86660000  0.85020000  1
  H  H44  1  0.57990000  0.13820000  0.80610000  1
  H  H45  1  0.58740000  0.88420000  0.59970000  1
  H  H46  1  0.59400000  0.72670000  0.26610000  1
  H  H47  1  0.61650000  0.06300000  0.84790000  1
  H  H48  1  0.62830000  0.06160000  0.19270000  1
  H  H49  1  0.63170000  0.33930000  0.13550000  1
  H  H50  1  0.63480000  0.75270000  0.67970000  1
  H  H51  1  0.65470000  0.66730000  0.75710000  1
  H  H52  1  0.65560000  0.99230000  0.24060000  1
  H  H53  1  0.67860000  0.41700000  0.66280000  1
  H  H54  1  0.68490000  0.11330000  0.25890000  1
  H  H55  1  0.68560000  0.37630000  0.77330000  1
  H  H56  1  0.69590000  0.10630000  0.80250000  1
  H  H57  1  0.75060000  0.28970000  0.21060000  1
  H  H58  1  0.76410000  0.27630000  0.71240000  1
  H  H59  1  0.77220000  0.85120000  0.36690000  1
  H  H60  1  0.78050000  0.48600000  0.81370000  1
  H  H61  1  0.78490000  0.83220000  0.11660000  1
  H  H62  1  0.78840000  0.37850000  0.83050000  1
  H  H63  1  0.86600000  0.00620000  0.77560000  1
  H  H64  1  0.86730000  0.89470000  0.67920000  1
  H  H65  1  0.86930000  0.27440000  0.76740000  1
  H  H66  1  0.88320000  0.08230000  0.20600000  1
  H  H67  1  0.89300000  0.69340000  0.61620000  1
  H  H68  1  0.91270000  0.32130000  0.71330000  1
  H  H69  1  0.92630000  0.04460000  0.15400000  1
  H  H70  1  0.93200000  0.27630000  0.30440000  1
  H  H71  1  0.94270000  0.98230000  0.43930000  1
  H  H72  1  0.94370000  0.12600000  0.76930000  1
  H  H73  1  0.95560000  0.60160000  0.13880000  1
  H  H74  1  0.96640000  0.08870000  0.83060000  1
  H  H75  1  0.96720000  0.88050000  0.78990000  1
  C  C76  1  0.00900000  0.33840000  0.31110000  1
  C  C77  1  0.01610000  0.48790000  0.79930000  1
  C  C78  1  0.01950000  0.41320000  0.27280000  1
  C  C79  1  0.04140000  0.02140000  0.71160000  1
  C  C80  1  0.05200000  0.93200000  0.21070000  1
  C  C81  1  0.05200000  0.93900000  0.80420000  1
  C  C82  1  0.05300000  0.05350000  0.38790000  1
  C  C83  1  0.05350000  0.01960000  0.59900000  1
  C  C84  1  0.05670000  0.03690000  0.77760000  1
  C  C85  1  0.06070000  0.05460000  0.33000000  1
  C  C86  1  0.07570000  0.58150000  0.77710000  1
  C  C87  1  0.08550000  0.46040000  0.84640000  1
  C  C88  1  0.11400000  0.35670000  0.35850000  1
  C  C89  1  0.12620000  0.57610000  0.23700000  1
  C  C90  1  0.13810000  0.50440000  0.28340000  1
  C  C91  1  0.14700000  0.68600000  0.26340000  1
  C  C92  1  0.15200000  0.09620000  0.70000000  1
  C  C93  1  0.15700000  0.09710000  0.64240000  1
  C  C94  1  0.16890000  0.13820000  0.43530000  1
  C  C95  1  0.19160000  0.13300000  0.79940000  1
  C  C96  1  0.20800000  0.64680000  0.80310000  1
  C  C97  1  0.21720000  0.52640000  0.87130000  1
  C  C98  1  0.22700000  0.58400000  0.20140000  1
  C  C99  1  0.23040000  0.44930000  0.36920000  1
  C  C100  1  0.24280000  0.52220000  0.33090000  1
  C  C101  1  0.24400000  0.16690000  0.75330000  1
  C  C102  1  0.25330000  0.18760000  0.85330000  1
  C  C103  1  0.27900000  0.61830000  0.84860000  1
  C  C104  1  0.29200000  0.49900000  0.92370000  1
  C  C105  1  0.34260000  0.47220000  0.42120000  1
  C  C106  1  0.36800000  0.25280000  0.76410000  1
  C  C107  1  0.36900000  0.27520000  0.24010000  1
  C  C108  1  0.37300000  0.29830000  0.13790000  1
  C  C109  1  0.37300000  0.95120000  0.76810000  1
  C  C110  1  0.38200000  0.22550000  0.28680000  1
  C  C111  1  0.38310000  0.28000000  0.86440000  1
  C  C112  1  0.38900000  0.24680000  0.18920000  1
  C  C113  1  0.38900000  0.91810000  0.19060000  1
  C  C114  1  0.42100000  0.13900000  0.28370000  1
  C  C115  1  0.42500000  0.15690000  0.18470000  1
  C  C116  1  0.43200000  0.30560000  0.81930000  1
  C  C117  1  0.43700000  0.06760000  0.38230000  1
  C  C118  1  0.44230000  0.06800000  0.32390000  1
  C  C119  1  0.44360000  0.10620000  0.23150000  1
  C  C120  1  0.45200000  0.33620000  0.92500000  1
  C  C121  1  0.46200000  0.16050000  0.58140000  1
  C  C122  1  0.46900000  0.99340000  0.41160000  1
  C  C123  1  0.47900000  0.99550000  0.29820000  1
  C  C124  1  0.48270000  0.01390000  0.23670000  1
  C  C125  1  0.49130000  0.07910000  0.67220000  1
  C  C126  1  0.49660000  0.08120000  0.61440000  1
  C  C127  1  0.50340000  0.91880000  0.38560000  1
  C  C128  1  0.50870000  0.92090000  0.32780000  1
  C  C129  1  0.51730000  0.98610000  0.76330000  1
  C  C130  1  0.52100000  0.00450000  0.70180000  1
  C  C131  1  0.53100000  0.00660000  0.58840000  1
  C  C132  1  0.53800000  0.83950000  0.41860000  1
  C  C133  1  0.54800000  0.66380000  0.07500000  1
  C  C134  1  0.55640000  0.89380000  0.76850000  1
  C  C135  1  0.55770000  0.93200000  0.67610000  1
  C  C136  1  0.56300000  0.93240000  0.61770000  1
  C  C137  1  0.56800000  0.69440000  0.18070000  1
  C  C138  1  0.57500000  0.84310000  0.81530000  1
  C  C139  1  0.57900000  0.86100000  0.71630000  1
  C  C140  1  0.61100000  0.08190000  0.80940000  1
  C  C141  1  0.61100000  0.75320000  0.81080000  1
  C  C142  1  0.61690000  0.72000000  0.13560000  1
  C  C143  1  0.61800000  0.77450000  0.71320000  1
  C  C144  1  0.62700000  0.04880000  0.23190000  1
  C  C145  1  0.62700000  0.70170000  0.86210000  1
  C  C146  1  0.63100000  0.72480000  0.75990000  1
  C  C147  1  0.63200000  0.74720000  0.23590000  1
  C  C148  1  0.65740000  0.52780000  0.57880000  1
  C  C149  1  0.70800000  0.50100000  0.07630000  1
  C  C150  1  0.72100000  0.38170000  0.15140000  1
  C  C151  1  0.74670000  0.81240000  0.14670000  1
  C  C152  1  0.75600000  0.83310000  0.24670000  1
  C  C153  1  0.75720000  0.47780000  0.66910000  1
  C  C154  1  0.76960000  0.55070000  0.63080000  1
  C  C155  1  0.77300000  0.41600000  0.79860000  1
  C  C156  1  0.78280000  0.47360000  0.12870000  1
  C  C157  1  0.79200000  0.35320000  0.19690000  1
  C  C158  1  0.80840000  0.86700000  0.20060000  1
  C  C159  1  0.83110000  0.86180000  0.56470000  1
  C  C160  1  0.84300000  0.90290000  0.35760000  1
  C  C161  1  0.84800000  0.90380000  0.30000000  1
  C  C162  1  0.85300000  0.31400000  0.73660000  1
  C  C163  1  0.86190000  0.49560000  0.71660000  1
  C  C164  1  0.87380000  0.42390000  0.76300000  1
  C  C165  1  0.88600000  0.64330000  0.64150000  1
  C  C166  1  0.91450000  0.53960000  0.15360000  1
  C  C167  1  0.92430000  0.41850000  0.22290000  1
  C  C168  1  0.93930000  0.94540000  0.67000000  1
  C  C169  1  0.94330000  0.96310000  0.22240000  1
  C  C170  1  0.94650000  0.98040000  0.40100000  1
  C  C171  1  0.94700000  0.94650000  0.61210000  1
  C  C172  1  0.94800000  0.06100000  0.19580000  1
  C  C173  1  0.94800000  0.06800000  0.78930000  1
  C  C174  1  0.95860000  0.97860000  0.28840000  1
  C  C175  1  0.98050000  0.58680000  0.72720000  1
  C  C176  1  0.98390000  0.51210000  0.20070000  1
  C  C177  1  0.99100000  0.66160000  0.68890000  1
  O  O178  1  0.15960000  0.14630000  0.48580000  1
  O  O179  1  0.23040000  0.43930000  0.95350000  1
  O  O180  1  0.26840000  0.19610000  0.42130000  1
  O  O181  1  0.31800000  0.42030000  0.46310000  1
  O  O182  1  0.36330000  0.38920000  0.14210000  1
  O  O183  1  0.37220000  0.25840000  0.08800000  1
  O  O184  1  0.39360000  0.30870000  0.96460000  1
  O  O185  1  0.41680000  0.53700000  0.93520000  1
  O  O186  1  0.43530000  0.23040000  0.60690000  1
  O  O187  1  0.43550000  0.58760000  0.06650000  1
  O  O188  1  0.45360000  0.54380000  0.42350000  1
  O  O189  1  0.45700000  0.15630000  0.52840000  1
  O  O190  1  0.54300000  0.84370000  0.47160000  1
  O  O191  1  0.54640000  0.45620000  0.57650000  1
  O  O192  1  0.56450000  0.41240000  0.93350000  1
  O  O193  1  0.56470000  0.76960000  0.39310000  1
  O  O194  1  0.58320000  0.46300000  0.06480000  1
  O  O195  1  0.60640000  0.69130000  0.03540000  1
  O  O196  1  0.62780000  0.74160000  0.91200000  1
  O  O197  1  0.63670000  0.61080000  0.85790000  1
  O  O198  1  0.68200000  0.57970000  0.53690000  1
  O  O199  1  0.73160000  0.80390000  0.57870000  1
  O  O200  1  0.76960000  0.56070000  0.04650000  1
  O  O201  1  0.84040000  0.85370000  0.51420000  1
