# generated using pymatgen
data_Fe3W6C6(S4N3)2
_symmetry_space_group_name_H-M   'P 1'
_cell_length_a   13.18880000
_cell_length_b   13.18880000
_cell_length_c   18.28600000
_cell_angle_alpha   92.73210000
_cell_angle_beta   92.73210000
_cell_angle_gamma   112.78100000
_symmetry_Int_Tables_number   1
_chemical_formula_structural   Fe3W6C6(S4N3)2
_chemical_formula_sum   'Fe6 W12 C12 S16 N12'
_cell_volume   2921.72949698
_cell_formula_units_Z   2
loop_
 _symmetry_equiv_pos_site_id
 _symmetry_equiv_pos_as_xyz
  1  'x, y, z'
loop_
 _atom_site_type_symbol
 _atom_site_label
 _atom_site_symmetry_multiplicity
 _atom_site_fract_x
 _atom_site_fract_y
 _atom_site_fract_z
 _atom_site_occupancy
  Fe  Fe0  1  0.50000000  0.00000000  0.50000000  1
  Fe  Fe1  1  0.70467000  0.78479000  0.30402000  1
  Fe  Fe2  1  0.78479000  0.70467000  0.80402000  1
  Fe  Fe3  1  0.00000000  0.50000000  0.00000000  1
  Fe  Fe4  1  0.21521000  0.29533000  0.19598000  1
  Fe  Fe5  1  0.29533000  0.21521000  0.69598000  1
  W  W6  1  0.54934000  0.96220000  0.08969000  1
  W  W7  1  0.56731000  0.91851000  0.94759000  1
  W  W8  1  0.36816000  0.87260000  0.99786000  1
  W  W9  1  0.12740000  0.63184000  0.50214000  1
  W  W10  1  0.91851000  0.56731000  0.44759000  1
  W  W11  1  0.96220000  0.54934000  0.58969000  1
  W  W12  1  0.03780000  0.45066000  0.41031000  1
  W  W13  1  0.08149000  0.43269000  0.55241000  1
  W  W14  1  0.87260000  0.36816000  0.49786000  1
  W  W15  1  0.63184000  0.12740000  0.00214000  1
  W  W16  1  0.43269000  0.08149000  0.05241000  1
  W  W17  1  0.45066000  0.03780000  0.91031000  1
  C  C18  1  0.60940000  0.91060000  0.18850000  1
  C  C19  1  0.64890000  0.82610000  0.89220000  1
  C  C20  1  0.27220000  0.78320000  0.50470000  1
  C  C21  1  0.21680000  0.72780000  0.99530000  1
  C  C22  1  0.82610000  0.64890000  0.39220000  1
  C  C23  1  0.91060000  0.60940000  0.68850000  1
  C  C24  1  0.08940000  0.39060000  0.31150000  1
  C  C25  1  0.17390000  0.35110000  0.60780000  1
  C  C26  1  0.78320000  0.27220000  0.00470000  1
  C  C27  1  0.72780000  0.21680000  0.49530000  1
  C  C28  1  0.35110000  0.17390000  0.10780000  1
  C  C29  1  0.39060000  0.08940000  0.81150000  1
  S  S30  1  0.27243000  0.99197000  0.96480000  1
  S  S31  1  0.36350000  0.92390000  0.12860000  1
  S  S32  1  0.39600000  0.84220000  0.86750000  1
  S  S33  1  0.48490000  0.77410000  0.03190000  1
  S  S34  1  0.00803000  0.72757000  0.53520000  1
  S  S35  1  0.07610000  0.63650000  0.37140000  1
  S  S36  1  0.15780000  0.60400000  0.63250000  1
  S  S37  1  0.22590000  0.51510000  0.46810000  1
  S  S38  1  0.77410000  0.48490000  0.53190000  1
  S  S39  1  0.84220000  0.39600000  0.36750000  1
  S  S40  1  0.92390000  0.36350000  0.62860000  1
  S  S41  1  0.99197000  0.27243000  0.46480000  1
  S  S42  1  0.51510000  0.22590000  0.96810000  1
  S  S43  1  0.60400000  0.15780000  0.13250000  1
  S  S44  1  0.63650000  0.07610000  0.87140000  1
  S  S45  1  0.72757000  0.00803000  0.03520000  1
  N  N46  1  0.64230000  0.87790000  0.23790000  1
  N  N47  1  0.35160000  0.86280000  0.50550000  1
  N  N48  1  0.68970000  0.77350000  0.86440000  1
  N  N49  1  0.77350000  0.68970000  0.36440000  1
  N  N50  1  0.13720000  0.64840000  0.99450000  1
  N  N51  1  0.87790000  0.64230000  0.73790000  1
  N  N52  1  0.12210000  0.35770000  0.26210000  1
  N  N53  1  0.86280000  0.35160000  0.00550000  1
  N  N54  1  0.22650000  0.31030000  0.63560000  1
  N  N55  1  0.31030000  0.22650000  0.13560000  1
  N  N56  1  0.64840000  0.13720000  0.49450000  1
  N  N57  1  0.35770000  0.12210000  0.76210000  1
