# generated using pymatgen
data_ZnH13C24(NO2)2
_symmetry_space_group_name_H-M   'P 1'
_cell_length_a   16.93810000
_cell_length_b   16.93810000
_cell_length_c   32.59800000
_cell_angle_alpha   87.77340000
_cell_angle_beta   87.77340000
_cell_angle_gamma   70.32820000
_symmetry_Int_Tables_number   1
_chemical_formula_structural   ZnH13C24(NO2)2
_chemical_formula_sum   'Zn8 H104 C192 N16 O32'
_cell_volume   8796.55353054
_cell_formula_units_Z   8
loop_
 _symmetry_equiv_pos_site_id
 _symmetry_equiv_pos_as_xyz
  1  'x, y, z'
loop_
 _atom_site_type_symbol
 _atom_site_label
 _atom_site_symmetry_multiplicity
 _atom_site_fract_x
 _atom_site_fract_y
 _atom_site_fract_z
 _atom_site_occupancy
  Zn  Zn0  1  0.31359000  0.85593000  0.94289000  1
  Zn  Zn1  1  0.79706000  0.85126000  0.19473000  1
  Zn  Zn2  1  0.85126000  0.79706000  0.69473000  1
  Zn  Zn3  1  0.14407000  0.68641000  0.55711000  1
  Zn  Zn4  1  0.85593000  0.31359000  0.44289000  1
  Zn  Zn5  1  0.14874000  0.20294000  0.30527000  1
  Zn  Zn6  1  0.20294000  0.14874000  0.80527000  1
  Zn  Zn7  1  0.68641000  0.14407000  0.05711000  1
  H  H8  1  0.67240000  0.99860000  0.20460000  1
  H  H9  1  0.87960000  0.99640000  0.27310000  1
  H  H10  1  0.91760000  0.99600000  0.08530000  1
  H  H11  1  0.43910000  0.99470000  0.06040000  1
  H  H12  1  0.48300000  0.99020000  0.88310000  1
  H  H13  1  0.02430000  0.98910000  0.03890000  1
  H  H14  1  0.16100000  0.98100000  0.52440000  1
  H  H15  1  0.24550000  0.98030000  0.38880000  1
  H  H16  1  0.01090000  0.97570000  0.46110000  1
  H  H17  1  0.19120000  0.95600000  0.59840000  1
  H  H18  1  0.08820000  0.92200000  0.67840000  1
  H  H19  1  0.99600000  0.91760000  0.58530000  1
  H  H20  1  0.07800000  0.91180000  0.82160000  1
  H  H21  1  0.50500000  0.90620000  0.81230000  1
  H  H22  1  0.34620000  0.88680000  0.09530000  1
  H  H23  1  0.20310000  0.88570000  0.09260000  1
  H  H24  1  0.61420000  0.88540000  0.76550000  1
  H  H25  1  0.99640000  0.87960000  0.77310000  1
  H  H26  1  0.70770000  0.87810000  0.73620000  1
  H  H27  1  0.36140000  0.87380000  0.71400000  1
  H  H28  1  0.25740000  0.87360000  0.43820000  1
  H  H29  1  0.60390000  0.84630000  0.99130000  1
  H  H30  1  0.01900000  0.83900000  0.97560000  1
  H  H31  1  0.62550000  0.82370000  0.91740000  1
  H  H32  1  0.04400000  0.80880000  0.90160000  1
  H  H33  1  0.11430000  0.79690000  0.40740000  1
  H  H34  1  0.33230000  0.79410000  0.66410000  1
  H  H35  1  0.43440000  0.78420000  0.79640000  1
  H  H36  1  0.29280000  0.78320000  0.79290000  1
  H  H37  1  0.64750000  0.76550000  0.11330000  1
  H  H38  1  0.01970000  0.75450000  0.11120000  1
  H  H39  1  0.56880000  0.75140000  0.05970000  1
  H  H40  1  0.67310000  0.74290000  0.32220000  1
  H  H41  1  0.12640000  0.74260000  0.06180000  1
  H  H42  1  0.87810000  0.70770000  0.23620000  1
  H  H43  1  0.21680000  0.70720000  0.70710000  1
  H  H44  1  0.62980000  0.69180000  0.86870000  1
  H  H45  1  0.74290000  0.67310000  0.82220000  1
  H  H46  1  0.99860000  0.67240000  0.70460000  1
  H  H47  1  0.20590000  0.66770000  0.83590000  1
  H  H48  1  0.11320000  0.65380000  0.40470000  1
  H  H49  1  0.76550000  0.64750000  0.61330000  1
  H  H50  1  0.12620000  0.63860000  0.78600000  1
  H  H51  1  0.69180000  0.62980000  0.36870000  1
  H  H52  1  0.82370000  0.62550000  0.41740000  1
  H  H53  1  0.88540000  0.61420000  0.26550000  1
  H  H54  1  0.84630000  0.60390000  0.49130000  1
  H  H55  1  0.75140000  0.56880000  0.55970000  1
  H  H56  1  0.21580000  0.56560000  0.70360000  1
  H  H57  1  0.00530000  0.56090000  0.43960000  1
  H  H58  1  0.00980000  0.51700000  0.61690000  1
  H  H59  1  0.90620000  0.50500000  0.31230000  1
  H  H60  1  0.09380000  0.49500000  0.68770000  1
  H  H61  1  0.99020000  0.48300000  0.38310000  1
  H  H62  1  0.99470000  0.43910000  0.56040000  1
  H  H63  1  0.78420000  0.43440000  0.29640000  1
  H  H64  1  0.24860000  0.43120000  0.44030000  1
  H  H65  1  0.15370000  0.39610000  0.50870000  1
  H  H66  1  0.11460000  0.38580000  0.73450000  1
  H  H67  1  0.17630000  0.37450000  0.58260000  1
  H  H68  1  0.30820000  0.37020000  0.63130000  1
  H  H69  1  0.87380000  0.36140000  0.21400000  1
  H  H70  1  0.23450000  0.35250000  0.38670000  1
  H  H71  1  0.88680000  0.34620000  0.59530000  1
  H  H72  1  0.79410000  0.33230000  0.16410000  1
  H  H73  1  0.00140000  0.32760000  0.29540000  1
  H  H74  1  0.25710000  0.32690000  0.17780000  1
  H  H75  1  0.37020000  0.30820000  0.13130000  1
  H  H76  1  0.78320000  0.29280000  0.29290000  1
  H  H77  1  0.12190000  0.29230000  0.76380000  1
  H  H78  1  0.87360000  0.25740000  0.93820000  1
  H  H79  1  0.32690000  0.25710000  0.67780000  1
  H  H80  1  0.43120000  0.24860000  0.94030000  1
  H  H81  1  0.98030000  0.24550000  0.88880000  1
  H  H82  1  0.35250000  0.23450000  0.88670000  1
  H  H83  1  0.70720000  0.21680000  0.20710000  1
  H  H84  1  0.56560000  0.21580000  0.20360000  1
  H  H85  1  0.66770000  0.20590000  0.33590000  1
  H  H86  1  0.88570000  0.20310000  0.59260000  1
  H  H87  1  0.95600000  0.19120000  0.09840000  1
  H  H88  1  0.37450000  0.17630000  0.08260000  1
  H  H89  1  0.98100000  0.16100000  0.02440000  1
  H  H90  1  0.39610000  0.15370000  0.00870000  1
  H  H91  1  0.74260000  0.12640000  0.56180000  1
  H  H92  1  0.63860000  0.12620000  0.28600000  1
  H  H93  1  0.29230000  0.12190000  0.26380000  1
  H  H94  1  0.00360000  0.12040000  0.22690000  1
  H  H95  1  0.38580000  0.11460000  0.23450000  1
  H  H96  1  0.79690000  0.11430000  0.90740000  1
  H  H97  1  0.65380000  0.11320000  0.90470000  1
  H  H98  1  0.49500000  0.09380000  0.18770000  1
  H  H99  1  0.92200000  0.08820000  0.17840000  1
  H  H100  1  0.00400000  0.08240000  0.41470000  1
  H  H101  1  0.91180000  0.07800000  0.32160000  1
  H  H102  1  0.80880000  0.04400000  0.40160000  1
  H  H103  1  0.98910000  0.02430000  0.53890000  1
  H  H104  1  0.75450000  0.01970000  0.61120000  1
  H  H105  1  0.83900000  0.01900000  0.47560000  1
  H  H106  1  0.97570000  0.01090000  0.96110000  1
  H  H107  1  0.51700000  0.00980000  0.11690000  1
  H  H108  1  0.56090000  0.00530000  0.93960000  1
  H  H109  1  0.08240000  0.00400000  0.91470000  1
  H  H110  1  0.12040000  0.00360000  0.72690000  1
  H  H111  1  0.32760000  0.00140000  0.79540000  1
  C  C112  1  0.25820000  0.99900000  0.75864000  1
  C  C113  1  0.19810000  0.97970000  0.40402000  1
  C  C114  1  0.05970000  0.97630000  0.44717000  1
  C  C115  1  0.16320000  0.96020000  0.71474000  1
  C  C116  1  0.94490000  0.95990000  0.58115000  1
  C  C117  1  0.87597000  0.95837000  0.60302000  1
  C  C118  1  0.52855000  0.95775000  0.10514000  1
  C  C119  1  0.48050000  0.94850000  0.07161000  1
  C  C120  1  0.95990000  0.94490000  0.08115000  1
  C  C121  1  0.24335000  0.94375000  0.72616000  1
  C  C122  1  0.02370000  0.94030000  0.05283000  1
  C  C123  1  0.16446000  0.93286000  0.54004000  1
  C  C124  1  0.17994000  0.91894000  0.58114000  1
  C  C125  1  0.20590000  0.91490000  0.43342000  1
  C  C126  1  0.13244000  0.91484000  0.45548000  1
  C  C127  1  0.14390000  0.91250000  0.68468000  1
  C  C128  1  0.64380000  0.90080000  0.15337000  1
  C  C129  1  0.87780000  0.89220000  0.63455000  1
  C  C130  1  0.59280000  0.88820000  0.12007000  1
  C  C131  1  0.30610000  0.88370000  0.70690000  1
  C  C132  1  0.32040000  0.87960000  0.07177000  1
  C  C133  1  0.24170000  0.87950000  0.07078000  1
  C  C134  1  0.89220000  0.87780000  0.13455000  1
  C  C135  1  0.95837000  0.87597000  0.10302000  1
  C  C136  1  0.49692000  0.86952000  0.05622000  1
  C  C137  1  0.23003000  0.86763000  0.02818000  1
  C  C138  1  0.08516000  0.86756000  0.04452000  1
  C  C139  1  0.35977000  0.86677000  0.03181000  1
  C  C140  1  0.44143000  0.86143000  0.02207000  1
  C  C141  1  0.15586000  0.85966000  0.01408000  1
  C  C142  1  0.15456000  0.85836000  0.52638000  1
  C  C143  1  0.55190000  0.85810000  0.81460000  1
  C  C144  1  0.08750000  0.85610000  0.81532000  1
  C  C145  1  0.20507000  0.85407000  0.66544000  1
  C  C146  1  0.48053000  0.84613000  0.98306000  1
  C  C147  1  0.61840000  0.84600000  0.78674000  1
  C  C148  1  0.14164000  0.84544000  0.97362000  1
  C  C149  1  0.14034000  0.84414000  0.48592000  1
  C  C150  1  0.56480000  0.84140000  0.97321000  1
  C  C151  1  0.17604000  0.83864000  0.59320000  1
  C  C152  1  0.03980000  0.83680000  0.78526000  1
  C  C153  1  0.28910000  0.83650000  0.67670000  1
  C  C154  1  0.06714000  0.83554000  0.95996000  1
  C  C155  1  0.57655000  0.82835000  0.93258000  1
  C  C156  1  0.16136000  0.82396000  0.90680000  1
  C  C157  1  0.49996000  0.82276000  0.91644000  1
  C  C158  1  0.08106000  0.82006000  0.91886000  1
  C  C159  1  0.60560000  0.81260000  0.10312000  1
  C  C160  1  0.48418000  0.81198000  0.87437000  1
  C  C161  1  0.19901000  0.81001000  0.86784000  1
  C  C162  1  0.40960000  0.80920000  0.86017000  1
  C  C163  1  0.27920000  0.80680000  0.85672000  1
  C  C164  1  0.55790000  0.80370000  0.07094000  1
  C  C165  1  0.02030000  0.80190000  0.09598000  1
  C  C166  1  0.55370000  0.80130000  0.84513000  1
  C  C167  1  0.18999000  0.80099000  0.63216000  1
  C  C168  1  0.14593000  0.79493000  0.83456000  1
  C  C169  1  0.08510000  0.79410000  0.06658000  1
  C  C170  1  0.39560000  0.79280000  0.81820000  1
  C  C171  1  0.31800000  0.79200000  0.81635000  1
  C  C172  1  0.68876000  0.77916000  0.78953000  1
  C  C173  1  0.13237000  0.76997000  0.47182000  1
  C  C174  1  0.76370000  0.76410000  0.25995000  1
  C  C175  1  0.76410000  0.76370000  0.75995000  1
  C  C176  1  0.12050000  0.75830000  0.42922000  1
  C  C177  1  0.05625000  0.75665000  0.77384000  1
  C  C178  1  0.00100000  0.74180000  0.74136000  1
  C  C179  1  0.62640000  0.73180000  0.84782000  1
  C  C180  1  0.19320000  0.72080000  0.64328000  1
  C  C181  1  0.69480000  0.72000000  0.81992000  1
  C  C182  1  0.16350000  0.71090000  0.82330000  1
  C  C183  1  0.72000000  0.69480000  0.31992000  1
  C  C184  1  0.11630000  0.69390000  0.79310000  1
  C  C185  1  0.77916000  0.68876000  0.28953000  1
  C  C186  1  0.20800000  0.68200000  0.68365000  1
  C  C187  1  0.12040000  0.67960000  0.42823000  1
  C  C188  1  0.90080000  0.64380000  0.65337000  1
  C  C189  1  0.13323000  0.64023000  0.46819000  1
  C  C190  1  0.73180000  0.62640000  0.34782000  1
  C  C191  1  0.84600000  0.61840000  0.28674000  1
  C  C192  1  0.81260000  0.60560000  0.60312000  1
  C  C193  1  0.20720000  0.60440000  0.68180000  1
  C  C194  1  0.88820000  0.59280000  0.62007000  1
  C  C195  1  0.19080000  0.59040000  0.63983000  1
  C  C196  1  0.82835000  0.57655000  0.43258000  1
  C  C197  1  0.84140000  0.56480000  0.47321000  1
  C  C198  1  0.13857000  0.55857000  0.47793000  1
  C  C199  1  0.80370000  0.55790000  0.57094000  1
  C  C200  1  0.80130000  0.55370000  0.34513000  1
  C  C201  1  0.85810000  0.55190000  0.31460000  1
  C  C202  1  0.95775000  0.52855000  0.60514000  1
  C  C203  1  0.05150000  0.51950000  0.42839000  1
  C  C204  1  0.15387000  0.51947000  0.51694000  1
  C  C205  1  0.18802000  0.51582000  0.62563000  1
  C  C206  1  0.13048000  0.50308000  0.44378000  1
  C  C207  1  0.17724000  0.50004000  0.58356000  1
  C  C208  1  0.82276000  0.49996000  0.41644000  1
  C  C209  1  0.86952000  0.49692000  0.55622000  1
  C  C210  1  0.81198000  0.48418000  0.37437000  1
  C  C211  1  0.84613000  0.48053000  0.48306000  1
  C  C212  1  0.94850000  0.48050000  0.57161000  1
  C  C213  1  0.04225000  0.47145000  0.39486000  1
  C  C214  1  0.14190000  0.44810000  0.68540000  1
  C  C215  1  0.19870000  0.44630000  0.65487000  1
  C  C216  1  0.19630000  0.44210000  0.42906000  1
  C  C217  1  0.86143000  0.44143000  0.52207000  1
  C  C218  1  0.15860000  0.43520000  0.52679000  1
  C  C219  1  0.17165000  0.42345000  0.56742000  1
  C  C220  1  0.80920000  0.40960000  0.36017000  1
  C  C221  1  0.11180000  0.40720000  0.37993000  1
  C  C222  1  0.79280000  0.39560000  0.31820000  1
  C  C223  1  0.18740000  0.39440000  0.39688000  1
  C  C224  1  0.15400000  0.38160000  0.71326000  1
  C  C225  1  0.26820000  0.37360000  0.65218000  1
  C  C226  1  0.86677000  0.35977000  0.53181000  1
  C  C227  1  0.09920000  0.35620000  0.34663000  1
  C  C228  1  0.87960000  0.32040000  0.57177000  1
  C  C229  1  0.79200000  0.31800000  0.31635000  1
  C  C230  1  0.22084000  0.31124000  0.71047000  1
  C  C231  1  0.88370000  0.30610000  0.20690000  1
  C  C232  1  0.28000000  0.30520000  0.68008000  1
  C  C233  1  0.83650000  0.28910000  0.17670000  1
  C  C234  1  0.30520000  0.28000000  0.18008000  1
  C  C235  1  0.80680000  0.27920000  0.35672000  1
  C  C236  1  0.37360000  0.26820000  0.15218000  1
  C  C237  1  0.99900000  0.25820000  0.25864000  1
  C  C238  1  0.94375000  0.24335000  0.22616000  1
  C  C239  1  0.87950000  0.24170000  0.57078000  1
  C  C240  1  0.23590000  0.23630000  0.24005000  1
  C  C241  1  0.23630000  0.23590000  0.74005000  1
  C  C242  1  0.86763000  0.23003000  0.52818000  1
  C  C243  1  0.31124000  0.22084000  0.21047000  1
  C  C244  1  0.68200000  0.20800000  0.18365000  1
  C  C245  1  0.60440000  0.20720000  0.18180000  1
  C  C246  1  0.91490000  0.20590000  0.93342000  1
  C  C247  1  0.85407000  0.20507000  0.16544000  1
  C  C248  1  0.81001000  0.19901000  0.36784000  1
  C  C249  1  0.44630000  0.19870000  0.15487000  1
  C  C250  1  0.97970000  0.19810000  0.90402000  1
  C  C251  1  0.44210000  0.19630000  0.92906000  1
  C  C252  1  0.72080000  0.19320000  0.14328000  1
  C  C253  1  0.59040000  0.19080000  0.13983000  1
  C  C254  1  0.80099000  0.18999000  0.13216000  1
  C  C255  1  0.51582000  0.18802000  0.12563000  1
  C  C256  1  0.39440000  0.18740000  0.89688000  1
  C  C257  1  0.91894000  0.17994000  0.08114000  1
  C  C258  1  0.50004000  0.17724000  0.08356000  1
  C  C259  1  0.83864000  0.17604000  0.09320000  1
  C  C260  1  0.42345000  0.17165000  0.06742000  1
  C  C261  1  0.93286000  0.16446000  0.04004000  1
  C  C262  1  0.71090000  0.16350000  0.32330000  1
  C  C263  1  0.96020000  0.16320000  0.21474000  1
  C  C264  1  0.82396000  0.16136000  0.40680000  1
  C  C265  1  0.43520000  0.15860000  0.02679000  1
  C  C266  1  0.85966000  0.15586000  0.51408000  1
  C  C267  1  0.85836000  0.15456000  0.02638000  1
  C  C268  1  0.38160000  0.15400000  0.21326000  1
  C  C269  1  0.51947000  0.15387000  0.01694000  1
  C  C270  1  0.79493000  0.14593000  0.33456000  1
  C  C271  1  0.91250000  0.14390000  0.18468000  1
  C  C272  1  0.44810000  0.14190000  0.18540000  1
  C  C273  1  0.84544000  0.14164000  0.47362000  1
  C  C274  1  0.84414000  0.14034000  0.98592000  1
  C  C275  1  0.55857000  0.13857000  0.97793000  1
  C  C276  1  0.64023000  0.13323000  0.96819000  1
  C  C277  1  0.91484000  0.13244000  0.95548000  1
  C  C278  1  0.76997000  0.13237000  0.97182000  1
  C  C279  1  0.50308000  0.13048000  0.94378000  1
  C  C280  1  0.04163000  0.12403000  0.89698000  1
  C  C281  1  0.10780000  0.12220000  0.86545000  1
  C  C282  1  0.75830000  0.12050000  0.92922000  1
  C  C283  1  0.67960000  0.12040000  0.92823000  1
  C  C284  1  0.69390000  0.11630000  0.29310000  1
  C  C285  1  0.40720000  0.11180000  0.87993000  1
  C  C286  1  0.12220000  0.10780000  0.36545000  1
  C  C287  1  0.35620000  0.09920000  0.84663000  1
  C  C288  1  0.85610000  0.08750000  0.31532000  1
  C  C289  1  0.86756000  0.08516000  0.54452000  1
  C  C290  1  0.79410000  0.08510000  0.56658000  1
  C  C291  1  0.82006000  0.08106000  0.41886000  1
  C  C292  1  0.83554000  0.06714000  0.45996000  1
  C  C293  1  0.97630000  0.05970000  0.94717000  1
  C  C294  1  0.75665000  0.05625000  0.27384000  1
  C  C295  1  0.04010000  0.05510000  0.91885000  1
  C  C296  1  0.51950000  0.05150000  0.92839000  1
  C  C297  1  0.47145000  0.04225000  0.89486000  1
  C  C298  1  0.12403000  0.04163000  0.39698000  1
  C  C299  1  0.05510000  0.04010000  0.41885000  1
  C  C300  1  0.83680000  0.03980000  0.28526000  1
  C  C301  1  0.94030000  0.02370000  0.55283000  1
  C  C302  1  0.80190000  0.02030000  0.59598000  1
  C  C303  1  0.74180000  0.00100000  0.24136000  1
  N  N304  1  0.30127000  0.86087000  0.00547000  1
  N  N305  1  0.20024000  0.83704000  0.94140000  1
  N  N306  1  0.44031000  0.83531000  0.94826000  1
  N  N307  1  0.33656000  0.81896000  0.88293000  1
  N  N308  1  0.16296000  0.79976000  0.55860000  1
  N  N309  1  0.13913000  0.69873000  0.49453000  1
  N  N310  1  0.18104000  0.66344000  0.61707000  1
  N  N311  1  0.16469000  0.55969000  0.55174000  1
  N  N312  1  0.83531000  0.44031000  0.44826000  1
  N  N313  1  0.81896000  0.33656000  0.38293000  1
  N  N314  1  0.86087000  0.30127000  0.50547000  1
  N  N315  1  0.83704000  0.20024000  0.44140000  1
  N  N316  1  0.66344000  0.18104000  0.11707000  1
  N  N317  1  0.55969000  0.16469000  0.05174000  1
  N  N318  1  0.79976000  0.16296000  0.05860000  1
  N  N319  1  0.69873000  0.13913000  0.99453000  1
  O  O320  1  0.33623000  0.97983000  0.76757000  1
  O  O321  1  0.61970000  0.96990000  0.17102000  1
  O  O322  1  0.80100000  0.94520000  0.22627000  1
  O  O323  1  0.82278000  0.93978000  0.13240000  1
  O  O324  1  0.82097000  0.90117000  0.66098000  1
  O  O325  1  0.70775000  0.84215000  0.16137000  1
  O  O326  1  0.75372000  0.82712000  0.73240000  1
  O  O327  1  0.70121000  0.82601000  0.26108000  1
  O  O328  1  0.93978000  0.82278000  0.63240000  1
  O  O329  1  0.90117000  0.82097000  0.16098000  1
  O  O330  1  0.94520000  0.80100000  0.72627000  1
  O  O331  1  0.82712000  0.75372000  0.23240000  1
  O  O332  1  0.84215000  0.70775000  0.66137000  1
  O  O333  1  0.82601000  0.70121000  0.76108000  1
  O  O334  1  0.02017000  0.66377000  0.73243000  1
  O  O335  1  0.96990000  0.61970000  0.67102000  1
  O  O336  1  0.03010000  0.38030000  0.32898000  1
  O  O337  1  0.97983000  0.33623000  0.26757000  1
  O  O338  1  0.17399000  0.29879000  0.23892000  1
  O  O339  1  0.15785000  0.29225000  0.33863000  1
  O  O340  1  0.17288000  0.24628000  0.76760000  1
  O  O341  1  0.05480000  0.19900000  0.27373000  1
  O  O342  1  0.09883000  0.17903000  0.83902000  1
  O  O343  1  0.06022000  0.17722000  0.36760000  1
  O  O344  1  0.29879000  0.17399000  0.73892000  1
  O  O345  1  0.24628000  0.17288000  0.26760000  1
  O  O346  1  0.29225000  0.15785000  0.83863000  1
  O  O347  1  0.17903000  0.09883000  0.33902000  1
  O  O348  1  0.17722000  0.06022000  0.86760000  1
  O  O349  1  0.19900000  0.05480000  0.77373000  1
  O  O350  1  0.38030000  0.03010000  0.82898000  1
  O  O351  1  0.66377000  0.02017000  0.23243000  1
