# generated using pymatgen
data_BaH16(C9O2)3
_symmetry_space_group_name_H-M   'P 1'
_cell_length_a   7.31620000
_cell_length_b   19.40400000
_cell_length_c   26.15500000
_cell_angle_alpha   90.00000000
_cell_angle_beta   90.00000000
_cell_angle_gamma   90.00000000
_symmetry_Int_Tables_number   1
_chemical_formula_structural   BaH16(C9O2)3
_chemical_formula_sum   'Ba4 H64 C108 O24'
_cell_volume   3713.05651424
_cell_formula_units_Z   4
loop_
 _symmetry_equiv_pos_site_id
 _symmetry_equiv_pos_as_xyz
  1  'x, y, z'
loop_
 _atom_site_type_symbol
 _atom_site_label
 _atom_site_symmetry_multiplicity
 _atom_site_fract_x
 _atom_site_fract_y
 _atom_site_fract_z
 _atom_site_occupancy
  Ba  Ba0  1  0.10171000  0.19374000  0.49298000  1
  Ba  Ba1  1  0.39829000  0.69374000  0.99298000  1
  Ba  Ba2  1  0.60171000  0.30626000  0.49298000  1
  Ba  Ba3  1  0.89829000  0.80626000  0.99298000  1
  H  H4  1  0.02020000  0.68160000  0.44190000  1
  H  H5  1  0.02740000  0.97630000  0.06420000  1
  H  H6  1  0.03000000  0.41340000  0.80550000  1
  H  H7  1  0.05820000  0.53750000  0.00000000  1
  H  H8  1  0.06640000  0.87250000  0.35870000  1
  H  H9  1  0.06970000  0.21840000  0.72970000  1
  H  H10  1  0.07620000  0.97270000  0.40530000  1
  H  H11  1  0.08880000  0.42870000  0.96830000  1
  H  H12  1  0.12840000  0.91300000  0.16780000  1
  H  H13  1  0.12920000  0.22760000  0.98180000  1
  H  H14  1  0.13070000  0.21000000  0.81750000  1
  H  H15  1  0.13180000  0.12510000  0.02800000  1
  H  H16  1  0.16780000  0.22110000  0.64440000  1
  H  H17  1  0.20340000  0.52070000  0.34440000  1
  H  H18  1  0.22910000  0.90950000  0.25040000  1
  H  H19  1  0.24980000  0.41040000  0.37800000  1
  H  H20  1  0.25020000  0.91040000  0.87800000  1
  H  H21  1  0.27090000  0.40950000  0.75040000  1
  H  H22  1  0.29660000  0.02070000  0.84440000  1
  H  H23  1  0.33220000  0.72110000  0.14440000  1
  H  H24  1  0.36820000  0.62510000  0.52800000  1
  H  H25  1  0.36930000  0.71000000  0.31750000  1
  H  H26  1  0.37080000  0.72760000  0.48180000  1
  H  H27  1  0.37160000  0.41300000  0.66780000  1
  H  H28  1  0.41120000  0.92870000  0.46830000  1
  H  H29  1  0.42380000  0.47270000  0.90530000  1
  H  H30  1  0.43030000  0.71840000  0.22970000  1
  H  H31  1  0.43360000  0.37250000  0.85870000  1
  H  H32  1  0.44180000  0.03750000  0.50000000  1
  H  H33  1  0.47000000  0.91340000  0.30550000  1
  H  H34  1  0.47260000  0.47630000  0.56420000  1
  H  H35  1  0.47980000  0.18160000  0.94190000  1
  H  H36  1  0.52020000  0.81840000  0.44190000  1
  H  H37  1  0.52740000  0.52370000  0.06420000  1
  H  H38  1  0.53000000  0.08660000  0.80550000  1
  H  H39  1  0.55820000  0.96250000  0.00000000  1
  H  H40  1  0.56640000  0.62750000  0.35870000  1
  H  H41  1  0.56970000  0.28160000  0.72970000  1
  H  H42  1  0.57620000  0.52730000  0.40530000  1
  H  H43  1  0.58880000  0.07130000  0.96830000  1
  H  H44  1  0.62840000  0.58700000  0.16780000  1
  H  H45  1  0.62920000  0.27240000  0.98180000  1
  H  H46  1  0.63070000  0.29000000  0.81750000  1
  H  H47  1  0.63180000  0.37490000  0.02800000  1
  H  H48  1  0.66780000  0.27890000  0.64440000  1
  H  H49  1  0.70340000  0.97930000  0.34440000  1
  H  H50  1  0.72910000  0.59050000  0.25040000  1
  H  H51  1  0.74980000  0.08960000  0.37800000  1
  H  H52  1  0.75020000  0.58960000  0.87800000  1
  H  H53  1  0.77090000  0.09050000  0.75040000  1
  H  H54  1  0.79660000  0.47930000  0.84440000  1
  H  H55  1  0.83220000  0.77890000  0.14440000  1
  H  H56  1  0.86820000  0.87490000  0.52800000  1
  H  H57  1  0.86930000  0.79000000  0.31750000  1
  H  H58  1  0.87080000  0.77240000  0.48180000  1
  H  H59  1  0.87160000  0.08700000  0.66780000  1
  H  H60  1  0.91120000  0.57130000  0.46830000  1
  H  H61  1  0.92380000  0.02730000  0.90530000  1
  H  H62  1  0.93030000  0.78160000  0.22970000  1
  H  H63  1  0.93360000  0.12750000  0.85870000  1
  H  H64  1  0.94180000  0.46250000  0.50000000  1
  H  H65  1  0.97000000  0.58660000  0.30550000  1
  H  H66  1  0.97260000  0.02370000  0.56420000  1
  H  H67  1  0.97980000  0.31840000  0.94190000  1
  C  C68  1  0.00360000  0.52610000  0.96860000  1
  C  C69  1  0.00430000  0.62430000  0.37820000  1
  C  C70  1  0.00480000  0.31660000  0.90660000  1
  C  C71  1  0.01380000  0.99960000  0.99870000  1
  C  C72  1  0.02460000  0.46190000  0.94930000  1
  C  C73  1  0.02470000  0.06560000  0.97160000  1
  C  C74  1  0.02540000  0.87230000  0.39280000  1
  C  C75  1  0.03220000  0.93220000  0.42080000  1
  C  C76  1  0.03980000  0.37350000  0.82560000  1
  C  C77  1  0.04120000  0.18910000  0.91400000  1
  C  C78  1  0.04840000  0.55560000  0.40150000  1
  C  C79  1  0.05090000  0.25320000  0.88390000  1
  C  C80  1  0.08970000  0.12550000  0.99400000  1
  C  C81  1  0.09210000  0.18660000  0.96560000  1
  C  C82  1  0.09780000  0.42430000  0.44240000  1
  C  C83  1  0.09790000  0.31160000  0.80380000  1
  C  C84  1  0.09800000  0.25210000  0.83280000  1
  C  C85  1  0.10920000  0.35030000  0.46080000  1
  C  C86  1  0.12870000  0.25790000  0.71700000  1
  C  C87  1  0.15040000  0.50870000  0.37590000  1
  C  C88  1  0.15790000  0.31300000  0.74880000  1
  C  C89  1  0.16460000  0.81810000  0.09120000  1
  C  C90  1  0.17780000  0.44250000  0.39580000  1
  C  C91  1  0.18660000  0.25990000  0.66530000  1
  C  C92  1  0.19270000  0.87440000  0.17990000  1
  C  C93  1  0.23230000  0.81600000  0.14570000  1
  C  C94  1  0.24960000  0.37160000  0.72880000  1
  C  C95  1  0.25040000  0.87160000  0.22880000  1
  C  C96  1  0.26770000  0.31600000  0.64570000  1
  C  C97  1  0.30730000  0.37440000  0.67990000  1
  C  C98  1  0.31340000  0.75990000  0.16530000  1
  C  C99  1  0.32220000  0.94250000  0.89580000  1
  C  C100  1  0.33540000  0.31810000  0.59120000  1
  C  C101  1  0.34210000  0.81300000  0.24880000  1
  C  C102  1  0.34960000  0.00870000  0.87590000  1
  C  C103  1  0.37130000  0.75790000  0.21700000  1
  C  C104  1  0.39080000  0.85030000  0.96080000  1
  C  C105  1  0.40200000  0.75210000  0.33280000  1
  C  C106  1  0.40210000  0.81160000  0.30380000  1
  C  C107  1  0.40220000  0.92430000  0.94240000  1
  C  C108  1  0.40790000  0.68660000  0.46560000  1
  C  C109  1  0.41030000  0.62550000  0.49400000  1
  C  C110  1  0.44910000  0.75320000  0.38390000  1
  C  C111  1  0.45160000  0.05560000  0.90150000  1
  C  C112  1  0.45880000  0.68910000  0.41400000  1
  C  C113  1  0.46020000  0.87350000  0.32560000  1
  C  C114  1  0.46780000  0.43220000  0.92080000  1
  C  C115  1  0.47460000  0.37230000  0.89280000  1
  C  C116  1  0.47530000  0.56560000  0.47160000  1
  C  C117  1  0.47540000  0.96190000  0.44930000  1
  C  C118  1  0.48620000  0.49960000  0.49870000  1
  C  C119  1  0.49520000  0.81660000  0.40660000  1
  C  C120  1  0.49570000  0.12430000  0.87820000  1
  C  C121  1  0.49640000  0.02610000  0.46860000  1
  C  C122  1  0.50360000  0.97390000  0.96860000  1
  C  C123  1  0.50430000  0.87570000  0.37820000  1
  C  C124  1  0.50480000  0.18340000  0.90660000  1
  C  C125  1  0.51380000  0.50040000  0.99870000  1
  C  C126  1  0.52460000  0.03810000  0.94930000  1
  C  C127  1  0.52470000  0.43440000  0.97160000  1
  C  C128  1  0.52540000  0.62770000  0.39280000  1
  C  C129  1  0.53220000  0.56780000  0.42080000  1
  C  C130  1  0.53980000  0.12650000  0.82560000  1
  C  C131  1  0.54120000  0.31090000  0.91400000  1
  C  C132  1  0.54840000  0.94440000  0.40150000  1
  C  C133  1  0.55090000  0.24680000  0.88390000  1
  C  C134  1  0.58970000  0.37450000  0.99400000  1
  C  C135  1  0.59210000  0.31340000  0.96560000  1
  C  C136  1  0.59780000  0.07570000  0.44240000  1
  C  C137  1  0.59790000  0.18840000  0.80380000  1
  C  C138  1  0.59800000  0.24790000  0.83280000  1
  C  C139  1  0.60920000  0.14970000  0.46080000  1
  C  C140  1  0.62870000  0.24210000  0.71700000  1
  C  C141  1  0.65040000  0.99130000  0.37590000  1
  C  C142  1  0.65790000  0.18700000  0.74880000  1
  C  C143  1  0.66460000  0.68190000  0.09120000  1
  C  C144  1  0.67780000  0.05750000  0.39580000  1
  C  C145  1  0.68660000  0.24010000  0.66530000  1
  C  C146  1  0.69270000  0.62560000  0.17990000  1
  C  C147  1  0.73230000  0.68400000  0.14570000  1
  C  C148  1  0.74960000  0.12840000  0.72880000  1
  C  C149  1  0.75040000  0.62840000  0.22880000  1
  C  C150  1  0.76770000  0.18400000  0.64570000  1
  C  C151  1  0.80730000  0.12560000  0.67990000  1
  C  C152  1  0.81340000  0.74010000  0.16530000  1
  C  C153  1  0.82220000  0.55750000  0.89580000  1
  C  C154  1  0.83540000  0.18190000  0.59120000  1
  C  C155  1  0.84210000  0.68700000  0.24880000  1
  C  C156  1  0.84960000  0.49130000  0.87590000  1
  C  C157  1  0.87130000  0.74210000  0.21700000  1
  C  C158  1  0.89080000  0.64970000  0.96080000  1
  C  C159  1  0.90200000  0.74790000  0.33280000  1
  C  C160  1  0.90210000  0.68840000  0.30380000  1
  C  C161  1  0.90220000  0.57570000  0.94240000  1
  C  C162  1  0.90790000  0.81340000  0.46560000  1
  C  C163  1  0.91030000  0.87450000  0.49400000  1
  C  C164  1  0.94910000  0.74680000  0.38390000  1
  C  C165  1  0.95160000  0.44440000  0.90150000  1
  C  C166  1  0.95880000  0.81090000  0.41400000  1
  C  C167  1  0.96020000  0.62650000  0.32560000  1
  C  C168  1  0.96780000  0.06780000  0.92080000  1
  C  C169  1  0.97460000  0.12770000  0.89280000  1
  C  C170  1  0.97530000  0.93440000  0.47160000  1
  C  C171  1  0.97540000  0.53810000  0.44930000  1
  C  C172  1  0.98620000  0.00040000  0.49870000  1
  C  C173  1  0.99520000  0.68340000  0.40660000  1
  C  C174  1  0.99570000  0.37570000  0.87820000  1
  C  C175  1  0.99640000  0.47390000  0.46860000  1
  O  O176  1  0.02680000  0.67170000  0.98570000  1
  O  O177  1  0.06090000  0.05190000  0.48010000  1
  O  O178  1  0.07080000  0.87040000  0.07710000  1
  O  O179  1  0.09260000  0.99820000  0.04390000  1
  O  O180  1  0.19310000  0.76680000  0.06387000  1
  O  O181  1  0.24970000  0.81690000  0.95170000  1
  O  O182  1  0.25030000  0.31690000  0.45170000  1
  O  O183  1  0.30690000  0.26680000  0.56387000  1
  O  O184  1  0.40740000  0.49820000  0.54390000  1
  O  O185  1  0.42920000  0.37040000  0.57710000  1
  O  O186  1  0.43910000  0.55190000  0.98010000  1
  O  O187  1  0.47320000  0.17170000  0.48570000  1
  O  O188  1  0.52680000  0.82830000  0.98570000  1
  O  O189  1  0.56090000  0.44810000  0.48010000  1
  O  O190  1  0.57080000  0.62960000  0.07710000  1
  O  O191  1  0.59260000  0.50180000  0.04390000  1
  O  O192  1  0.69310000  0.73320000  0.06387000  1
  O  O193  1  0.74970000  0.68310000  0.95170000  1
  O  O194  1  0.75030000  0.18310000  0.45170000  1
  O  O195  1  0.80690000  0.23320000  0.56387000  1
  O  O196  1  0.90740000  0.00180000  0.54390000  1
  O  O197  1  0.92920000  0.12960000  0.57710000  1
  O  O198  1  0.93910000  0.94810000  0.98010000  1
  O  O199  1  0.97320000  0.32830000  0.48570000  1
