# generated using pymatgen
data_Cu3H44C50(NO)8
_symmetry_space_group_name_H-M   'P 1'
_cell_length_a   19.42510000
_cell_length_b   34.66805800
_cell_length_c   36.58900000
_cell_angle_alpha   90.00000000
_cell_angle_beta   90.00000000
_cell_angle_gamma   96.53301690
_symmetry_Int_Tables_number   1
_chemical_formula_structural   Cu3H44C50(NO)8
_chemical_formula_sum   'Cu24 H352 C400 N64 O64'
_cell_volume   24480.14645833
_cell_formula_units_Z   8
loop_
 _symmetry_equiv_pos_site_id
 _symmetry_equiv_pos_as_xyz
  1  'x, y, z'
loop_
 _atom_site_type_symbol
 _atom_site_label
 _atom_site_symmetry_multiplicity
 _atom_site_fract_x
 _atom_site_fract_y
 _atom_site_fract_z
 _atom_site_occupancy
  Cu  Cu0  1  0.84938000  0.75297000  0.18928000  1
  Cu  Cu1  1  0.34938000  0.25297000  0.31072000  1
  Cu  Cu2  1  0.83862000  0.67661000  0.18876000  1
  Cu  Cu3  1  0.33862000  0.17661000  0.31124000  1
  Cu  Cu4  1  0.64421000  0.24922000  0.60782000  1
  Cu  Cu5  1  0.14421000  0.74922000  0.89218000  1
  Cu  Cu6  1  0.45977000  0.05284000  0.20514000  1
  Cu  Cu7  1  0.95977000  0.55284000  0.29486000  1
  Cu  Cu8  1  0.91815000  0.47309000  0.70090000  1
  Cu  Cu9  1  0.41815000  0.97309000  0.79910000  1
  Cu  Cu10  1  0.21433000  0.76222000  0.54333000  1
  Cu  Cu11  1  0.71433000  0.26222000  0.95667000  1
  Cu  Cu12  1  0.28567000  0.73778000  0.04333000  1
  Cu  Cu13  1  0.78567000  0.23778000  0.45667000  1
  Cu  Cu14  1  0.58185000  0.02691000  0.20090000  1
  Cu  Cu15  1  0.08185000  0.52691000  0.29910000  1
  Cu  Cu16  1  0.04023000  0.44716000  0.70514000  1
  Cu  Cu17  1  0.54023000  0.94716000  0.79486000  1
  Cu  Cu18  1  0.85579000  0.25078000  0.10782000  1
  Cu  Cu19  1  0.35579000  0.75078000  0.39218000  1
  Cu  Cu20  1  0.66138000  0.82339000  0.68876000  1
  Cu  Cu21  1  0.16138000  0.32339000  0.81124000  1
  Cu  Cu22  1  0.65062000  0.74703000  0.68928000  1
  Cu  Cu23  1  0.15062000  0.24703000  0.81072000  1
  H  H24  1  0.66830000  0.65220000  0.11290000  1
  H  H25  1  0.16830000  0.15220000  0.38710000  1
  H  H26  1  0.18760000  0.15230000  0.22530000  1
  H  H27  1  0.68760000  0.65230000  0.27470000  1
  H  H28  1  0.40860000  0.34950000  0.68810000  1
  H  H29  1  0.90860000  0.84950000  0.81190000  1
  H  H30  1  0.29850000  0.23020000  0.72690000  1
  H  H31  1  0.79850000  0.73020000  0.77310000  1
  H  H32  1  0.93040000  0.85040000  0.57710000  1
  H  H33  1  0.43040000  0.35040000  0.92290000  1
  H  H34  1  0.84020000  0.73370000  0.63100000  1
  H  H35  1  0.34020000  0.23370000  0.86900000  1
  H  H36  1  0.93320000  0.81960000  0.50880000  1
  H  H37  1  0.43320000  0.31960000  0.99120000  1
  H  H38  1  0.49490000  0.35230000  0.00170000  1
  H  H39  1  0.99490000  0.85230000  0.49830000  1
  H  H40  1  0.39860000  0.23280000  0.69120000  1
  H  H41  1  0.89860000  0.73280000  0.80880000  1
  H  H42  1  0.51760000  0.35000000  0.72010000  1
  H  H43  1  0.01760000  0.85000000  0.77990000  1
  H  H44  1  0.41430000  0.24240000  0.61630000  1
  H  H45  1  0.91430000  0.74240000  0.88370000  1
  H  H46  1  0.48660000  0.31160000  0.02290000  1
  H  H47  1  0.98660000  0.81160000  0.47710000  1
  H  H48  1  0.55640000  0.37720000  0.68940000  1
  H  H49  1  0.05640000  0.87720000  0.81060000  1
  H  H50  1  0.97310000  0.77610000  0.09130000  1
  H  H51  1  0.47310000  0.27610000  0.40870000  1
  H  H52  1  0.94460000  0.73760000  0.59880000  1
  H  H53  1  0.44460000  0.23760000  0.90120000  1
  H  H54  1  0.50550000  0.27850000  0.52810000  1
  H  H55  1  0.00550000  0.77850000  0.97190000  1
  H  H56  1  0.45800000  0.21250000  0.63690000  1
  H  H57  1  0.95800000  0.71250000  0.86310000  1
  H  H58  1  0.59920000  0.35020000  0.71410000  1
  H  H59  1  0.09920000  0.85020000  0.78590000  1
  H  H60  1  0.51600000  0.26380000  0.06320000  1
  H  H61  1  0.01600000  0.76380000  0.43680000  1
  H  H62  1  0.48340000  0.23000000  0.59810000  1
  H  H63  1  0.98340000  0.73000000  0.90190000  1
  H  H64  1  0.03890000  0.77640000  0.03800000  1
  H  H65  1  0.53890000  0.27640000  0.46200000  1
  H  H66  1  0.56120000  0.29160000  0.55920000  1
  H  H67  1  0.06120000  0.79160000  0.94080000  1
  H  H68  1  0.57830000  0.30220000  0.51740000  1
  H  H69  1  0.07830000  0.80220000  0.98260000  1
  H  H70  1  0.57270000  0.29600000  0.08000000  1
  H  H71  1  0.07270000  0.79600000  0.42000000  1
  H  H72  1  0.05410000  0.77340000  0.24310000  1
  H  H73  1  0.55410000  0.27340000  0.25690000  1
  H  H74  1  0.60850000  0.32420000  0.02930000  1
  H  H75  1  0.10850000  0.82420000  0.47070000  1
  H  H76  1  0.94770000  0.65910000  0.09090000  1
  H  H77  1  0.44770000  0.15910000  0.40910000  1
  H  H78  1  0.07140000  0.78240000  0.63290000  1
  H  H79  1  0.57140000  0.28240000  0.86710000  1
  H  H80  1  0.55590000  0.25500000  0.10010000  1
  H  H81  1  0.05590000  0.75500000  0.39990000  1
  H  H82  1  0.16800000  0.86390000  0.10900000  1
  H  H83  1  0.66800000  0.36390000  0.39100000  1
  H  H84  1  0.06700000  0.76110000  0.13930000  1
  H  H85  1  0.56700000  0.26110000  0.36070000  1
  H  H86  1  0.66410000  0.35650000  0.65640000  1
  H  H87  1  0.16410000  0.85650000  0.84360000  1
  H  H88  1  0.52020000  0.19150000  0.08220000  1
  H  H89  1  0.02020000  0.69150000  0.41780000  1
  H  H90  1  0.66540000  0.33550000  0.61750000  1
  H  H91  1  0.16540000  0.83550000  0.88250000  1
  H  H92  1  0.49370000  0.16080000  0.23270000  1
  H  H93  1  0.99370000  0.66080000  0.26730000  1
  H  H94  1  0.07750000  0.74050000  0.61570000  1
  H  H95  1  0.57750000  0.24050000  0.88430000  1
  H  H96  1  0.52960000  0.19170000  0.68040000  1
  H  H97  1  0.02960000  0.69170000  0.81960000  1
  H  H98  1  0.13830000  0.79480000  0.09330000  1
  H  H99  1  0.63830000  0.29480000  0.40670000  1
  H  H100  1  0.48550000  0.14190000  0.12310000  1
  H  H101  1  0.98550000  0.64190000  0.37690000  1
  H  H102  1  0.22940000  0.88100000  0.13560000  1
  H  H103  1  0.72940000  0.38100000  0.36440000  1
  H  H104  1  0.00730000  0.65840000  0.03550000  1
  H  H105  1  0.50730000  0.15840000  0.46450000  1
  H  H106  1  0.18900000  0.83880000  0.14310000  1
  H  H107  1  0.68900000  0.33880000  0.35690000  1
  H  H108  1  0.08560000  0.73430000  0.17270000  1
  H  H109  1  0.58560000  0.23430000  0.32730000  1
  H  H110  1  0.67840000  0.32600000  0.00590000  1
  H  H111  1  0.17840000  0.82600000  0.49410000  1
  H  H112  1  0.71700000  0.35620000  0.71610000  1
  H  H113  1  0.21700000  0.85620000  0.78390000  1
  H  H114  1  0.05070000  0.68880000  0.57060000  1
  H  H115  1  0.55070000  0.18880000  0.92940000  1
  H  H116  1  0.13580000  0.77270000  0.16270000  1
  H  H117  1  0.63580000  0.27270000  0.33730000  1
  H  H118  1  0.03400000  0.66950000  0.15500000  1
  H  H119  1  0.53400000  0.16950000  0.34500000  1
  H  H120  1  0.29050000  0.92410000  0.09740000  1
  H  H121  1  0.79050000  0.42410000  0.40260000  1
  H  H122  1  0.99570000  0.62760000  0.20270000  1
  H  H123  1  0.49570000  0.12760000  0.29730000  1
  H  H124  1  0.34780000  0.97920000  0.12420000  1
  H  H125  1  0.84780000  0.47920000  0.37580000  1
  H  H126  1  0.22130000  0.85100000  0.60400000  1
  H  H127  1  0.72130000  0.35100000  0.89600000  1
  H  H128  1  0.14430000  0.77210000  0.61760000  1
  H  H129  1  0.64430000  0.27210000  0.88240000  1
  H  H130  1  0.48750000  0.11370000  0.67750000  1
  H  H131  1  0.98750000  0.61370000  0.82250000  1
  H  H132  1  0.65080000  0.27630000  0.15260000  1
  H  H133  1  0.15080000  0.77630000  0.34740000  1
  H  H134  1  0.16220000  0.77910000  0.05470000  1
  H  H135  1  0.65420000  0.27110000  0.22180000  1
  H  H136  1  0.15420000  0.77110000  0.27820000  1
  H  H137  1  0.66220000  0.27910000  0.44530000  1
  H  H138  1  0.45070000  0.06570000  0.72090000  1
  H  H139  1  0.95070000  0.56570000  0.77910000  1
  H  H140  1  0.79420000  0.40840000  0.08980000  1
  H  H141  1  0.29420000  0.90840000  0.41020000  1
  H  H142  1  0.60370000  0.21660000  0.68530000  1
  H  H143  1  0.10370000  0.71660000  0.81470000  1
  H  H144  1  0.86500000  0.47760000  0.21040000  1
  H  H145  1  0.36500000  0.97760000  0.28960000  1
  H  H146  1  0.08980000  0.69860000  0.53260000  1
  H  H147  1  0.58980000  0.19860000  0.96740000  1
  H  H148  1  0.82950000  0.42790000  0.16880000  1
  H  H149  1  0.32950000  0.92790000  0.33120000  1
  H  H150  1  0.25000000  0.84840000  0.56310000  1
  H  H151  1  0.75000000  0.34840000  0.93690000  1
  H  H152  1  0.77910000  0.37660000  0.69180000  1
  H  H153  1  0.27910000  0.87660000  0.80820000  1
  H  H154  1  0.98400000  0.57820000  0.64110000  1
  H  H155  1  0.48400000  0.07820000  0.85890000  1
  H  H156  1  0.30830000  0.89950000  0.71670000  1
  H  H157  1  0.80830000  0.39950000  0.78330000  1
  H  H158  1  0.71770000  0.30790000  0.53930000  1
  H  H159  1  0.21770000  0.80790000  0.96070000  1
  H  H160  1  0.04520000  0.63470000  0.61690000  1
  H  H161  1  0.54520000  0.13470000  0.88310000  1
  H  H162  1  0.06520000  0.65440000  0.54340000  1
  H  H163  1  0.56520000  0.15440000  0.95660000  1
  H  H164  1  0.58760000  0.17570000  0.70560000  1
  H  H165  1  0.08760000  0.67570000  0.79440000  1
  H  H166  1  0.26890000  0.85630000  0.66990000  1
  H  H167  1  0.76890000  0.35630000  0.83010000  1
  H  H168  1  0.29520000  0.87340000  0.59320000  1
  H  H169  1  0.79520000  0.37340000  0.90680000  1
  H  H170  1  0.70010000  0.27740000  0.11760000  1
  H  H171  1  0.20010000  0.77740000  0.38240000  1
  H  H172  1  0.22980000  0.80010000  0.00320000  1
  H  H173  1  0.72980000  0.30010000  0.49680000  1
  H  H174  1  0.72810000  0.29760000  0.15490000  1
  H  H175  1  0.22810000  0.79760000  0.34510000  1
  H  H176  1  0.81800000  0.38740000  0.62510000  1
  H  H177  1  0.31800000  0.88740000  0.87490000  1
  H  H178  1  0.59160000  0.15870000  0.19700000  1
  H  H179  1  0.09160000  0.65870000  0.30300000  1
  H  H180  1  0.86880000  0.43030000  0.09980000  1
  H  H181  1  0.36880000  0.93030000  0.40020000  1
  H  H182  1  0.79550000  0.35210000  0.72720000  1
  H  H183  1  0.29550000  0.85210000  0.77280000  1
  H  H184  1  0.77780000  0.33380000  0.51750000  1
  H  H185  1  0.27780000  0.83380000  0.98250000  1
  H  H186  1  0.78260000  0.33530000  0.58680000  1
  H  H187  1  0.28260000  0.83530000  0.91320000  1
  H  H188  1  0.79210000  0.34230000  0.05240000  1
  H  H189  1  0.29210000  0.84230000  0.44760000  1
  H  H190  1  0.85900000  0.40390000  0.06390000  1
  H  H191  1  0.35900000  0.90390000  0.43610000  1
  H  H192  1  0.76740000  0.30250000  0.07310000  1
  H  H193  1  0.26740000  0.80250000  0.42690000  1
  H  H194  1  0.59770000  0.13030000  0.50140000  1
  H  H195  1  0.09770000  0.63030000  0.99860000  1
  H  H196  1  0.12390000  0.65490000  0.03390000  1
  H  H197  1  0.62390000  0.15490000  0.46610000  1
  H  H198  1  0.32230000  0.85320000  0.50250000  1
  H  H199  1  0.82230000  0.35320000  0.99750000  1
  H  H200  1  0.17770000  0.64680000  0.00250000  1
  H  H201  1  0.67770000  0.14680000  0.49750000  1
  H  H202  1  0.37610000  0.84510000  0.53390000  1
  H  H203  1  0.87610000  0.34510000  0.96610000  1
  H  H204  1  0.90230000  0.36970000  0.00140000  1
  H  H205  1  0.40230000  0.86970000  0.49860000  1
  H  H206  1  0.73260000  0.19750000  0.57310000  1
  H  H207  1  0.23260000  0.69750000  0.92690000  1
  H  H208  1  0.64100000  0.09610000  0.56390000  1
  H  H209  1  0.14100000  0.59610000  0.93610000  1
  H  H210  1  0.70790000  0.15770000  0.55240000  1
  H  H211  1  0.20790000  0.65770000  0.94760000  1
  H  H212  1  0.71740000  0.16470000  0.08680000  1
  H  H213  1  0.21740000  0.66470000  0.41320000  1
  H  H214  1  0.72220000  0.16620000  0.01750000  1
  H  H215  1  0.22220000  0.66620000  0.48250000  1
  H  H216  1  0.70450000  0.14790000  0.22720000  1
  H  H217  1  0.20450000  0.64790000  0.27280000  1
  H  H218  1  0.63120000  0.06970000  0.59980000  1
  H  H219  1  0.13120000  0.56970000  0.90020000  1
  H  H220  1  0.90840000  0.34130000  0.69700000  1
  H  H221  1  0.40840000  0.84130000  0.80300000  1
  H  H222  1  0.68200000  0.11260000  0.12510000  1
  H  H223  1  0.18200000  0.61260000  0.37490000  1
  H  H224  1  0.77190000  0.20240000  0.65490000  1
  H  H225  1  0.27190000  0.70240000  0.84510000  1
  H  H226  1  0.27020000  0.69990000  0.50320000  1
  H  H227  1  0.77020000  0.19990000  0.99680000  1
  H  H228  1  0.79990000  0.22260000  0.61760000  1
  H  H229  1  0.29990000  0.72260000  0.88240000  1
  H  H230  1  0.20480000  0.62660000  0.09320000  1
  H  H231  1  0.70480000  0.12660000  0.40680000  1
  H  H232  1  0.23110000  0.64370000  0.16990000  1
  H  H233  1  0.73110000  0.14370000  0.33010000  1
  H  H234  1  0.91240000  0.32430000  0.20560000  1
  H  H235  1  0.41240000  0.82430000  0.29440000  1
  H  H236  1  0.43480000  0.84560000  0.04340000  1
  H  H237  1  0.93480000  0.34560000  0.45660000  1
  H  H238  1  0.45480000  0.86530000  0.11690000  1
  H  H239  1  0.95480000  0.36530000  0.38310000  1
  H  H240  1  0.78230000  0.19210000  0.03930000  1
  H  H241  1  0.28230000  0.69210000  0.46070000  1
  H  H242  1  0.19170000  0.60050000  0.21670000  1
  H  H243  1  0.69170000  0.10050000  0.28330000  1
  H  H244  1  0.51600000  0.92180000  0.14110000  1
  H  H245  1  0.01600000  0.42180000  0.35890000  1
  H  H246  1  0.72090000  0.12340000  0.19180000  1
  H  H247  1  0.22090000  0.62340000  0.30820000  1
  H  H248  1  0.25000000  0.65160000  0.06310000  1
  H  H249  1  0.75000000  0.15160000  0.43690000  1
  H  H250  1  0.67050000  0.07210000  0.66880000  1
  H  H251  1  0.17050000  0.57210000  0.83120000  1
  H  H252  1  0.41020000  0.80140000  0.03260000  1
  H  H253  1  0.91020000  0.30140000  0.46740000  1
  H  H254  1  0.63500000  0.02240000  0.71040000  1
  H  H255  1  0.13500000  0.52240000  0.78960000  1
  H  H256  1  0.89630000  0.28340000  0.18530000  1
  H  H257  1  0.39630000  0.78340000  0.31470000  1
  H  H258  1  0.70580000  0.09160000  0.58980000  1
  H  H259  1  0.20580000  0.59160000  0.91020000  1
  H  H260  1  0.04930000  0.43430000  0.22090000  1
  H  H261  1  0.54930000  0.93430000  0.27910000  1
  H  H262  1  0.33780000  0.72090000  0.55470000  1
  H  H263  1  0.84580000  0.22890000  0.72180000  1
  H  H264  1  0.34580000  0.72890000  0.77820000  1
  H  H265  1  0.83780000  0.22090000  0.94530000  1
  H  H266  1  0.84920000  0.22370000  0.65260000  1
  H  H267  1  0.34920000  0.72370000  0.84740000  1
  H  H268  1  0.01250000  0.38630000  0.17750000  1
  H  H269  1  0.51250000  0.88630000  0.32250000  1
  H  H270  1  0.35570000  0.72790000  0.11760000  1
  H  H271  1  0.85570000  0.22790000  0.38240000  1
  H  H272  1  0.27870000  0.64900000  0.10400000  1
  H  H273  1  0.77870000  0.14900000  0.39600000  1
  H  H274  1  0.15220000  0.52080000  0.62420000  1
  H  H275  1  0.65220000  0.02080000  0.87580000  1
  H  H276  1  0.50430000  0.87240000  0.70270000  1
  H  H277  1  0.00430000  0.37240000  0.79730000  1
  H  H278  1  0.20950000  0.57590000  0.59740000  1
  H  H279  1  0.70950000  0.07590000  0.90260000  1
  H  H280  1  0.46600000  0.83050000  0.65500000  1
  H  H281  1  0.96600000  0.33050000  0.84500000  1
  H  H282  1  0.36420000  0.72730000  0.66270000  1
  H  H283  1  0.86420000  0.22730000  0.83730000  1
  H  H284  1  0.44930000  0.81120000  0.07060000  1
  H  H285  1  0.94930000  0.31120000  0.42940000  1
  H  H286  1  0.78300000  0.14380000  0.21610000  1
  H  H287  1  0.28300000  0.64380000  0.28390000  1
  H  H288  1  0.82160000  0.17400000  0.50590000  1
  H  H289  1  0.32160000  0.67400000  0.99410000  1
  H  H290  1  0.41440000  0.76570000  0.67270000  1
  H  H291  1  0.91440000  0.26570000  0.82730000  1
  H  H292  1  0.31100000  0.66120000  0.64310000  1
  H  H293  1  0.81100000  0.16120000  0.85690000  1
  H  H294  1  0.49270000  0.84160000  0.53550000  1
  H  H295  1  0.99270000  0.34160000  0.96450000  1
  H  H296  1  0.27060000  0.61900000  0.63560000  1
  H  H297  1  0.77060000  0.11900000  0.86440000  1
  H  H298  1  0.01450000  0.35810000  0.62310000  1
  H  H299  1  0.51450000  0.85810000  0.87690000  1
  H  H300  1  0.36170000  0.70520000  0.59330000  1
  H  H301  1  0.86170000  0.20520000  0.90670000  1
  H  H302  1  0.97040000  0.30830000  0.18040000  1
  H  H303  1  0.47040000  0.80830000  0.31960000  1
  H  H304  1  0.42250000  0.75950000  0.11570000  1
  H  H305  1  0.92250000  0.25950000  0.38430000  1
  H  H306  1  0.00630000  0.33920000  0.73270000  1
  H  H307  1  0.50630000  0.83920000  0.76730000  1
  H  H308  1  0.83460000  0.16450000  0.11750000  1
  H  H309  1  0.33460000  0.66450000  0.38250000  1
  H  H310  1  0.97980000  0.30850000  0.58220000  1
  H  H311  1  0.47980000  0.80850000  0.91780000  1
  H  H312  1  0.83590000  0.14350000  0.15640000  1
  H  H313  1  0.33590000  0.64350000  0.34360000  1
  H  H314  1  0.43300000  0.73890000  0.63930000  1
  H  H315  1  0.93300000  0.23890000  0.86070000  1
  H  H316  1  0.33200000  0.63610000  0.60900000  1
  H  H317  1  0.83200000  0.13610000  0.89100000  1
  H  H318  1  0.94410000  0.24500000  0.60010000  1
  H  H319  1  0.44410000  0.74500000  0.89990000  1
  H  H320  1  0.42860000  0.71760000  0.13290000  1
  H  H321  1  0.92860000  0.21760000  0.36710000  1
  H  H322  1  0.55230000  0.84090000  0.59090000  1
  H  H323  1  0.05230000  0.34090000  0.90910000  1
  H  H324  1  0.89150000  0.17580000  0.52930000  1
  H  H325  1  0.39150000  0.67580000  0.97070000  1
  H  H326  1  0.44590000  0.72660000  0.74310000  1
  H  H327  1  0.94590000  0.22660000  0.75690000  1
  H  H328  1  0.92730000  0.20400000  0.58000000  1
  H  H329  1  0.42730000  0.70400000  0.92000000  1
  H  H330  1  0.92170000  0.19780000  0.01740000  1
  H  H331  1  0.42170000  0.69780000  0.48260000  1
  H  H332  1  0.93880000  0.20840000  0.05920000  1
  H  H333  1  0.43880000  0.70840000  0.44080000  1
  H  H334  1  0.46110000  0.72360000  0.53800000  1
  H  H335  1  0.96110000  0.22360000  0.96200000  1
  H  H336  1  0.01660000  0.27000000  0.09810000  1
  H  H337  1  0.51660000  0.77000000  0.40190000  1
  H  H338  1  0.98400000  0.23620000  0.56320000  1
  H  H339  1  0.48400000  0.73620000  0.93680000  1
  H  H340  1  0.90080000  0.14980000  0.21410000  1
  H  H341  1  0.40080000  0.64980000  0.28590000  1
  H  H342  1  0.04200000  0.28750000  0.13690000  1
  H  H343  1  0.54200000  0.78750000  0.36310000  1
  H  H344  1  0.99450000  0.22150000  0.02810000  1
  H  H345  1  0.49450000  0.72150000  0.47190000  1
  H  H346  1  0.55540000  0.76240000  0.09880000  1
  H  H347  1  0.05540000  0.26240000  0.40120000  1
  H  H348  1  0.52690000  0.72390000  0.59130000  1
  H  H349  1  0.02690000  0.22390000  0.90870000  1
  H  H350  1  0.94360000  0.12280000  0.18940000  1
  H  H351  1  0.44360000  0.62280000  0.31060000  1
  H  H352  1  0.01340000  0.18840000  0.52290000  1
  H  H353  1  0.51340000  0.68840000  0.97710000  1
  H  H354  1  0.08570000  0.25760000  0.11630000  1
  H  H355  1  0.58570000  0.75760000  0.38370000  1
  H  H356  1  0.98240000  0.15000000  0.22010000  1
  H  H357  1  0.48240000  0.65000000  0.27990000  1
  H  H358  1  0.10140000  0.26720000  0.19120000  1
  H  H359  1  0.60140000  0.76720000  0.30880000  1
  H  H360  1  0.00510000  0.14770000  0.50170000  1
  H  H361  1  0.50510000  0.64770000  0.99830000  1
  H  H362  1  0.56680000  0.68040000  0.00880000  1
  H  H363  1  0.06680000  0.18040000  0.49120000  1
  H  H364  1  0.65980000  0.76630000  0.13100000  1
  H  H365  1  0.15980000  0.26630000  0.36900000  1
  H  H366  1  0.56960000  0.64960000  0.07710000  1
  H  H367  1  0.06960000  0.14960000  0.42290000  1
  H  H368  1  0.20150000  0.26980000  0.22690000  1
  H  H369  1  0.70150000  0.76980000  0.27310000  1
  H  H370  1  0.09140000  0.15050000  0.18810000  1
  H  H371  1  0.59140000  0.65050000  0.31190000  1
  H  H372  1  0.31240000  0.34770000  0.72530000  1
  H  H373  1  0.81240000  0.84770000  0.77470000  1
  H  H374  1  0.83170000  0.84780000  0.61290000  1
  H  H375  1  0.33170000  0.34780000  0.88710000  1
  C  C376  1  0.32995000  0.32420000  0.71871000  1
  C  C377  1  0.82995000  0.82420000  0.78129000  1
  C  C378  1  0.29701000  0.28901000  0.73099000  1
  C  C379  1  0.79701000  0.78901000  0.76901000  1
  C  C380  1  0.73800000  0.71110000  0.14860000  1
  C  C381  1  0.23800000  0.21110000  0.35140000  1
  C  C382  1  0.85394000  0.82504000  0.60941000  1
  C  C383  1  0.35394000  0.32504000  0.89059000  1
  C  C384  1  0.82611000  0.79028000  0.62517000  1
  C  C385  1  0.32611000  0.29028000  0.87483000  1
  C  C386  1  0.76112000  0.71220000  0.24210000  1
  C  C387  1  0.26112000  0.21220000  0.25790000  1
  C  C388  1  0.38778000  0.32518000  0.69698000  1
  C  C389  1  0.88778000  0.82518000  0.80302000  1
  C  C390  1  0.32205000  0.25455000  0.71985000  1
  C  C391  1  0.82205000  0.75455000  0.78015000  1
  C  C392  1  0.91334000  0.82674000  0.58870000  1
  C  C393  1  0.41334000  0.32674000  0.91130000  1
  C  C394  1  0.85921000  0.75771000  0.62072000  1
  C  C395  1  0.35921000  0.25771000  0.87928000  1
  C  C396  1  0.41671000  0.29181000  0.68758000  1
  C  C397  1  0.91671000  0.79181000  0.81242000  1
  C  C398  1  0.38159000  0.25619000  0.69848000  1
  C  C399  1  0.88159000  0.75619000  0.80152000  1
  C  C400  1  0.94877000  0.79434000  0.58452000  1
  C  C401  1  0.44877000  0.29434000  0.91548000  1
  C  C402  1  0.98157000  0.82427000  0.50078000  1
  C  C403  1  0.48157000  0.32427000  0.99922000  1
  C  C404  1  0.92105000  0.76005000  0.60101000  1
  C  C405  1  0.42105000  0.26005000  0.89899000  1
  C  C406  1  0.48310000  0.29355000  0.66813000  1
  C  C407  1  0.98310000  0.79355000  0.83187000  1
  C  C408  1  0.91604000  0.71677000  0.13192000  1
  C  C409  1  0.41604000  0.21677000  0.36808000  1
  C  C410  1  0.55483000  0.35213000  0.70190000  1
  C  C411  1  0.05483000  0.85213000  0.79810000  1
  C  C412  1  0.01432000  0.79559000  0.56403000  1
  C  C413  1  0.51432000  0.29559000  0.93597000  1
  C  C414  1  0.02762000  0.80793000  0.52858000  1
  C  C415  1  0.52762000  0.30793000  0.97142000  1
  C  C416  1  0.54143000  0.32007000  0.67468000  1
  C  C417  1  0.04143000  0.82007000  0.82532000  1
  C  C418  1  0.46103000  0.23553000  0.62119000  1
  C  C419  1  0.96103000  0.73553000  0.87881000  1
  C  C420  1  0.98178000  0.75224000  0.08043000  1
  C  C421  1  0.48178000  0.25224000  0.41957000  1
  C  C422  1  0.95087000  0.71732000  0.22886000  1
  C  C423  1  0.45087000  0.21732000  0.27114000  1
  C  C424  1  0.50325000  0.26914000  0.64029000  1
  C  C425  1  0.00325000  0.76914000  0.85971000  1
  C  C426  1  0.95546000  0.71696000  0.09656000  1
  C  C427  1  0.45546000  0.21696000  0.40344000  1
  C  C428  1  0.02047000  0.75242000  0.04855000  1
  C  C429  1  0.52047000  0.25242000  0.45145000  1
  C  C430  1  0.55504000  0.28259000  0.53394000  1
  C  C431  1  0.05504000  0.78259000  0.96606000  1
  C  C432  1  0.96583000  0.68292000  0.08000000  1
  C  C433  1  0.46583000  0.18292000  0.42000000  1
  C  C434  1  0.56024000  0.26809000  0.07629000  1
  C  C435  1  0.06024000  0.76809000  0.42371000  1
  C  C436  1  0.07655000  0.78325000  0.57672000  1
  C  C437  1  0.57655000  0.28325000  0.92328000  1
  C  C438  1  0.51411000  0.21676000  0.24807000  1
  C  C439  1  0.01411000  0.71676000  0.25193000  1
  C  C440  1  0.56212000  0.25002000  0.24487000  1
  C  C441  1  0.06212000  0.75002000  0.25513000  1
  C  C442  1  0.03252000  0.71739000  0.03176000  1
  C  C443  1  0.53252000  0.21739000  0.46824000  1
  C  C444  1  0.00253000  0.68237000  0.04730000  1
  C  C445  1  0.50253000  0.18237000  0.45270000  1
  C  C446  1  0.63437000  0.30985000  0.01154000  1
  C  C447  1  0.13437000  0.80985000  0.48846000  1
  C  C448  1  0.09394000  0.76824000  0.61404000  1
  C  C449  1  0.59394000  0.26824000  0.88596000  1
  C  C450  1  0.65956000  0.33090000  0.64410000  1
  C  C451  1  0.15956000  0.83090000  0.85590000  1
  C  C452  1  0.58564000  0.24542000  0.52948000  1
  C  C453  1  0.08564000  0.74542000  0.97052000  1
  C  C454  1  0.52616000  0.18339000  0.23045000  1
  C  C455  1  0.02616000  0.68339000  0.26955000  1
  C  C456  1  0.20664000  0.85734000  0.12410000  1
  C  C457  1  0.70664000  0.35734000  0.37590000  1
  C  C458  1  0.10483000  0.75101000  0.15273000  1
  C  C459  1  0.60483000  0.25101000  0.34727000  1
  C  C460  1  0.57579000  0.21701000  0.50152000  1
  C  C461  1  0.07579000  0.71701000  0.99848000  1
  C  C462  1  0.61517000  0.25216000  0.05438000  1
  C  C463  1  0.11517000  0.75216000  0.44562000  1
  C  C464  1  0.62166000  0.24850000  0.22397000  1
  C  C465  1  0.12166000  0.74850000  0.27603000  1
  C  C466  1  0.55361000  0.17613000  0.09167000  1
  C  C467  1  0.05361000  0.67613000  0.40833000  1
  C  C468  1  0.53253000  0.14631000  0.11550000  1
  C  C469  1  0.03253000  0.64631000  0.38450000  1
  C  C470  1  0.57952000  0.19032000  0.68337000  1
  C  C471  1  0.07952000  0.69032000  0.81663000  1
  C  C472  1  0.17435000  0.78151000  0.08096000  1
  C  C473  1  0.67435000  0.28151000  0.41904000  1
  C  C474  1  0.58480000  0.18203000  0.20944000  1
  C  C475  1  0.08480000  0.68203000  0.29056000  1
  C  C476  1  0.08342000  0.68002000  0.55287000  1
  C  C477  1  0.58342000  0.18002000  0.94713000  1
  C  C478  1  0.76352000  0.35381000  0.70668000  1
  C  C479  1  0.26352000  0.85381000  0.79332000  1
  C  C480  1  0.06637000  0.65602000  0.16789000  1
  C  C481  1  0.56637000  0.15602000  0.33211000  1
  C  C482  1  0.33551000  0.92321000  0.10724000  1
  C  C483  1  0.83551000  0.42321000  0.39276000  1
  C  C484  1  0.04338000  0.63095000  0.19605000  1
  C  C485  1  0.54338000  0.13095000  0.30395000  1
  C  C486  1  0.26297000  0.84996000  0.58902000  1
  C  C487  1  0.76297000  0.34996000  0.91098000  1
  C  C488  1  0.36977000  0.95617000  0.12268000  1
  C  C489  1  0.86977000  0.45617000  0.37732000  1
  C  C490  1  0.25622000  0.84002000  0.10135000  1
  C  C491  1  0.75622000  0.34002000  0.39865000  1
  C  C492  1  0.14432000  0.72807000  0.12750000  1
  C  C493  1  0.64432000  0.22807000  0.37250000  1
  C  C494  1  0.63449000  0.21449000  0.20623000  1
  C  C495  1  0.13449000  0.71449000  0.29377000  1
  C  C496  1  0.51805000  0.09555000  0.68458000  1
  C  C497  1  0.01805000  0.59555000  0.81542000  1
  C  C498  1  0.69856000  0.27566000  0.14428000  1
  C  C499  1  0.19856000  0.77566000  0.35572000  1
  C  C500  1  0.64431000  0.21741000  0.05650000  1
  C  C501  1  0.14431000  0.71741000  0.44350000  1
  C  C502  1  0.61636000  0.18807000  0.51123000  1
  C  C503  1  0.11636000  0.68807000  0.98877000  1
  C  C504  1  0.49561000  0.06671000  0.71035000  1
  C  C505  1  0.99561000  0.56671000  0.78965000  1
  C  C506  1  0.60643000  0.17023000  0.65075000  1
  C  C507  1  0.10643000  0.67023000  0.84925000  1
  C  C508  1  0.89505000  0.45875000  0.20431000  1
  C  C509  1  0.39505000  0.95875000  0.29569000  1
  C  C510  1  0.84415000  0.40665000  0.08924000  1
  C  C511  1  0.34415000  0.90665000  0.41076000  1
  C  C512  1  0.62309000  0.18433000  0.08101000  1
  C  C513  1  0.12309000  0.68433000  0.41899000  1
  C  C514  1  0.76189000  0.31748000  0.68346000  1
  C  C515  1  0.26189000  0.81748000  0.81654000  1
  C  C516  1  0.75267000  0.30778000  0.51997000  1
  C  C517  1  0.25267000  0.80778000  0.98003000  1
  C  C518  1  0.87448000  0.42918000  0.17931000  1
  C  C519  1  0.37448000  0.92918000  0.32069000  1
  C  C520  1  0.03050000  0.57790000  0.63321000  1
  C  C521  1  0.53050000  0.07790000  0.86679000  1
  C  C522  1  0.34002000  0.88501000  0.70450000  1
  C  C523  1  0.84002000  0.38501000  0.79550000  1
  C  C524  1  0.06700000  0.61160000  0.61833000  1
  C  C525  1  0.56700000  0.11160000  0.88167000  1
  C  C526  1  0.31655000  0.85938000  0.67651000  1
  C  C527  1  0.81655000  0.35938000  0.82349000  1
  C  C528  1  0.58085000  0.12247000  0.12842000  1
  C  C529  1  0.08085000  0.62247000  0.37158000  1
  C  C530  1  0.55824000  0.09034000  0.15536000  1
  C  C531  1  0.05824000  0.59034000  0.34464000  1
  C  C532  1  0.16030000  0.69034000  0.12966000  1
  C  C533  1  0.66030000  0.19034000  0.37034000  1
  C  C534  1  0.32510000  0.85200000  0.09308000  1
  C  C535  1  0.82510000  0.35200000  0.40692000  1
  C  C536  1  0.15255000  0.67735000  0.57140000  1
  C  C537  1  0.65255000  0.17735000  0.92860000  1
  C  C538  1  0.13696000  0.66164000  0.15822000  1
  C  C539  1  0.63696000  0.16164000  0.34178000  1
  C  C540  1  0.60794000  0.13074000  0.64433000  1
  C  C541  1  0.10794000  0.63074000  0.85567000  1
  C  C542  1  0.36578000  0.88838000  0.10568000  1
  C  C543  1  0.86578000  0.38838000  0.39432000  1
  C  C544  1  0.69792000  0.22025000  0.02951000  1
  C  C545  1  0.19792000  0.72025000  0.47049000  1
  C  C546  1  0.13005000  0.65197000  0.00750000  1
  C  C547  1  0.63005000  0.15197000  0.49250000  1
  C  C548  1  0.85067000  0.37084000  0.61703000  1
  C  C549  1  0.35067000  0.87084000  0.88297000  1
  C  C550  1  0.09078000  0.61061000  0.21462000  1
  C  C551  1  0.59078000  0.11061000  0.28538000  1
  C  C552  1  0.06579000  0.58472000  0.24607000  1
  C  C553  1  0.56579000  0.08472000  0.25393000  1
  C  C554  1  0.29673000  0.81537000  0.59922000  1
  C  C555  1  0.79673000  0.31537000  0.90078000  1
  C  C556  1  0.43763000  0.95573000  0.13632000  1
  C  C557  1  0.93763000  0.45573000  0.36368000  1
  C  C558  1  0.47198000  0.98978000  0.15748000  1
  C  C559  1  0.97198000  0.48978000  0.34252000  1
  C  C560  1  0.58328000  0.09808000  0.66942000  1
  C  C561  1  0.08328000  0.59808000  0.83058000  1
  C  C562  1  0.69746000  0.21222000  0.18354000  1
  C  C563  1  0.19746000  0.71222000  0.31646000  1
  C  C564  1  0.72409000  0.23825000  0.15628000  1
  C  C565  1  0.22409000  0.73825000  0.34372000  1
  C  C566  1  0.85998000  0.37228000  0.11076000  1
  C  C567  1  0.35998000  0.87228000  0.38924000  1
  C  C568  1  0.80843000  0.32053000  0.06613000  1
  C  C569  1  0.30843000  0.82053000  0.43387000  1
  C  C570  1  0.82987000  0.33998000  0.59397000  1
  C  C571  1  0.32987000  0.83998000  0.90603000  1
  C  C572  1  0.98275000  0.48995000  0.24854000  1
  C  C573  1  0.48275000  0.98995000  0.25146000  1
  C  C574  1  0.53927000  0.03997000  0.72015000  1
  C  C575  1  0.03927000  0.53997000  0.77985000  1
  C  C576  1  0.96073000  0.46003000  0.22015000  1
  C  C577  1  0.46073000  0.96003000  0.27985000  1
  C  C578  1  0.51725000  0.01005000  0.74854000  1
  C  C579  1  0.01725000  0.51005000  0.75146000  1
  C  C580  1  0.67013000  0.16002000  0.09397000  1
  C  C581  1  0.17013000  0.66002000  0.40603000  1
  C  C582  1  0.69157000  0.17947000  0.56613000  1
  C  C583  1  0.19157000  0.67947000  0.93387000  1
  C  C584  1  0.64002000  0.12772000  0.61076000  1
  C  C585  1  0.14002000  0.62772000  0.88924000  1
  C  C586  1  0.77591000  0.26175000  0.65628000  1
  C  C587  1  0.27591000  0.76175000  0.84372000  1
  C  C588  1  0.80254000  0.28778000  0.68354000  1
  C  C589  1  0.30254000  0.78778000  0.81646000  1
  C  C590  1  0.91672000  0.40192000  0.16942000  1
  C  C591  1  0.41672000  0.90192000  0.33058000  1
  C  C592  1  0.02802000  0.51022000  0.65748000  1
  C  C593  1  0.52802000  0.01022000  0.84252000  1
  C  C594  1  0.06237000  0.54427000  0.63632000  1
  C  C595  1  0.56237000  0.04427000  0.86368000  1
  C  C596  1  0.20327000  0.68463000  0.09922000  1
  C  C597  1  0.70327000  0.18463000  0.40078000  1
  C  C598  1  0.43421000  0.91528000  0.74607000  1
  C  C599  1  0.93421000  0.41528000  0.75393000  1
  C  C600  1  0.40922000  0.88939000  0.71462000  1
  C  C601  1  0.90922000  0.38939000  0.78538000  1
  C  C602  1  0.64933000  0.12916000  0.11703000  1
  C  C603  1  0.14933000  0.62916000  0.38297000  1
  C  C604  1  0.36995000  0.84803000  0.50750000  1
  C  C605  1  0.86995000  0.34803000  0.99250000  1
  C  C606  1  0.80208000  0.27975000  0.52951000  1
  C  C607  1  0.30208000  0.77975000  0.97049000  1
  C  C608  1  0.13422000  0.61162000  0.60568000  1
  C  C609  1  0.63422000  0.11162000  0.89432000  1
  C  C610  1  0.89206000  0.36926000  0.14433000  1
  C  C611  1  0.39206000  0.86926000  0.35567000  1
  C  C612  1  0.36304000  0.83836000  0.65822000  1
  C  C613  1  0.86304000  0.33836000  0.84178000  1
  C  C614  1  0.34745000  0.82265000  0.07140000  1
  C  C615  1  0.84745000  0.32265000  0.42860000  1
  C  C616  1  0.17490000  0.64800000  0.59308000  1
  C  C617  1  0.67490000  0.14800000  0.90692000  1
  C  C618  1  0.33970000  0.80966000  0.62966000  1
  C  C619  1  0.83970000  0.30966000  0.87034000  1
  C  C620  1  0.94176000  0.40966000  0.65536000  1
  C  C621  1  0.44176000  0.90966000  0.84464000  1
  C  C622  1  0.91915000  0.37753000  0.62842000  1
  C  C623  1  0.41915000  0.87753000  0.87158000  1
  C  C624  1  0.18345000  0.64062000  0.17651000  1
  C  C625  1  0.68345000  0.14062000  0.32349000  1
  C  C626  1  0.43300000  0.88840000  0.11833000  1
  C  C627  1  0.93300000  0.38840000  0.38167000  1
  C  C628  1  0.15998000  0.61499000  0.20450000  1
  C  C629  1  0.65998000  0.11499000  0.29550000  1
  C  C630  1  0.46950000  0.92210000  0.13321000  1
  C  C631  1  0.96950000  0.42210000  0.36679000  1
  C  C632  1  0.62552000  0.07082000  0.67931000  1
  C  C633  1  0.12552000  0.57082000  0.82069000  1
  C  C634  1  0.74733000  0.19222000  0.01997000  1
  C  C635  1  0.24733000  0.69222000  0.48003000  1
  C  C636  1  0.73811000  0.18252000  0.18346000  1
  C  C637  1  0.23811000  0.68252000  0.31654000  1
  C  C638  1  0.87691000  0.31567000  0.58101000  1
  C  C639  1  0.37691000  0.81567000  0.91899000  1
  C  C640  1  0.65585000  0.09335000  0.58924000  1
  C  C641  1  0.15585000  0.59335000  0.91076000  1
  C  C642  1  0.60495000  0.04125000  0.70431000  1
  C  C643  1  0.10495000  0.54125000  0.79569000  1
  C  C644  1  0.89357000  0.32977000  0.15075000  1
  C  C645  1  0.39357000  0.82977000  0.34925000  1
  C  C646  1  0.00439000  0.43329000  0.21035000  1
  C  C647  1  0.50439000  0.93329000  0.28965000  1
  C  C648  1  0.88364000  0.31193000  0.01123000  1
  C  C649  1  0.38364000  0.81193000  0.48877000  1
  C  C650  1  0.85569000  0.28259000  0.55650000  1
  C  C651  1  0.35569000  0.78259000  0.94350000  1
  C  C652  1  0.80144000  0.22434000  0.64428000  1
  C  C653  1  0.30144000  0.72434000  0.85572000  1
  C  C654  1  0.98195000  0.40445000  0.18458000  1
  C  C655  1  0.48195000  0.90445000  0.31542000  1
  C  C656  1  0.86551000  0.28551000  0.70623000  1
  C  C657  1  0.36551000  0.78551000  0.79377000  1
  C  C658  1  0.35568000  0.77193000  0.62750000  1
  C  C659  1  0.85568000  0.27193000  0.87250000  1
  C  C660  1  0.24378000  0.65998000  0.60135000  1
  C  C661  1  0.74378000  0.15998000  0.89865000  1
  C  C662  1  0.13023000  0.54383000  0.62268000  1
  C  C663  1  0.63023000  0.04383000  0.87732000  1
  C  C664  1  0.23703000  0.65004000  0.08902000  1
  C  C665  1  0.73703000  0.15004000  0.41098000  1
  C  C666  1  0.45662000  0.86905000  0.69605000  1
  C  C667  1  0.95662000  0.36905000  0.80395000  1
  C  C668  1  0.16449000  0.57679000  0.60724000  1
  C  C669  1  0.66449000  0.07679000  0.89276000  1
  C  C670  1  0.43363000  0.84398000  0.66789000  1
  C  C671  1  0.93363000  0.34398000  0.83211000  1
  C  C672  1  0.73648000  0.14619000  0.20668000  1
  C  C673  1  0.23648000  0.64619000  0.29332000  1
  C  C674  1  0.41658000  0.81998000  0.05287000  1
  C  C675  1  0.91658000  0.31998000  0.44713000  1
  C  C676  1  0.91520000  0.31797000  0.70944000  1
  C  C677  1  0.41520000  0.81797000  0.79056000  1
  C  C678  1  0.32565000  0.71849000  0.58096000  1
  C  C679  1  0.82565000  0.21849000  0.91904000  1
  C  C680  1  0.92048000  0.30968000  0.18337000  1
  C  C681  1  0.42048000  0.80968000  0.31663000  1
  C  C682  1  0.96747000  0.35369000  0.61550000  1
  C  C683  1  0.46747000  0.85369000  0.88450000  1
  C  C684  1  0.94639000  0.32387000  0.59167000  1
  C  C685  1  0.44639000  0.82387000  0.90833000  1
  C  C686  1  0.87834000  0.25150000  0.72397000  1
  C  C687  1  0.37834000  0.75150000  0.77603000  1
  C  C688  1  0.88483000  0.24784000  0.55438000  1
  C  C689  1  0.38483000  0.74784000  0.94562000  1
  C  C690  1  0.92421000  0.28299000  0.00152000  1
  C  C691  1  0.42421000  0.78299000  0.49848000  1
  C  C692  1  0.39517000  0.74899000  0.65273000  1
  C  C693  1  0.89517000  0.24899000  0.84727000  1
  C  C694  1  0.29336000  0.64266000  0.62410000  1
  C  C695  1  0.79336000  0.14266000  0.87590000  1
  C  C696  1  0.97384000  0.31661000  0.73045000  1
  C  C697  1  0.47384000  0.81661000  0.76955000  1
  C  C698  1  0.91436000  0.25458000  0.02948000  1
  C  C699  1  0.41436000  0.75458000  0.47052000  1
  C  C700  1  0.84044000  0.16910000  0.14410000  1
  C  C701  1  0.34044000  0.66910000  0.35590000  1
  C  C702  1  0.40606000  0.73176000  0.11404000  1
  C  C703  1  0.90606000  0.23176000  0.38596000  1
  C  C704  1  0.86563000  0.19015000  0.51154000  1
  C  C705  1  0.36563000  0.69015000  0.98846000  1
  C  C706  1  0.49747000  0.81763000  0.54730000  1
  C  C707  1  0.99747000  0.31763000  0.95270000  1
  C  C708  1  0.46748000  0.78261000  0.53176000  1
  C  C709  1  0.96748000  0.28261000  0.96824000  1
  C  C710  1  0.93788000  0.24998000  0.74487000  1
  C  C711  1  0.43788000  0.74998000  0.75513000  1
  C  C712  1  0.98589000  0.28324000  0.74807000  1
  C  C713  1  0.48589000  0.78324000  0.75193000  1
  C  C714  1  0.42345000  0.71675000  0.07672000  1
  C  C715  1  0.92345000  0.21675000  0.42328000  1
  C  C716  1  0.93976000  0.23191000  0.57629000  1
  C  C717  1  0.43976000  0.73191000  0.92371000  1
  C  C718  1  0.53417000  0.81708000  0.58000000  1
  C  C719  1  0.03417000  0.31708000  0.92000000  1
  C  C720  1  0.94496000  0.21741000  0.03394000  1
  C  C721  1  0.44496000  0.71741000  0.46606000  1
  C  C722  1  0.47953000  0.74758000  0.54855000  1
  C  C723  1  0.97953000  0.24758000  0.95145000  1
  C  C724  1  0.54454000  0.78304000  0.59656000  1
  C  C725  1  0.04454000  0.28304000  0.90344000  1
  C  C726  1  0.99675000  0.23086000  0.14029000  1
  C  C727  1  0.49675000  0.73086000  0.35971000  1
  C  C728  1  0.54913000  0.78268000  0.72886000  1
  C  C729  1  0.04913000  0.28268000  0.77114000  1
  C  C730  1  0.51822000  0.74776000  0.58043000  1
  C  C731  1  0.01822000  0.24776000  0.91957000  1
  C  C732  1  0.03897000  0.26447000  0.12119000  1
  C  C733  1  0.53897000  0.76447000  0.37881000  1
  C  C734  1  0.95857000  0.17993000  0.17468000  1
  C  C735  1  0.45857000  0.67993000  0.32532000  1
  C  C736  1  0.47238000  0.69207000  0.02858000  1
  C  C737  1  0.97238000  0.19207000  0.47142000  1
  C  C738  1  0.48568000  0.70441000  0.06403000  1
  C  C739  1  0.98568000  0.20441000  0.43597000  1
  C  C740  1  0.94517000  0.14787000  0.20190000  1
  C  C741  1  0.44517000  0.64787000  0.29810000  1
  C  C742  1  0.58396000  0.78323000  0.63192000  1
  C  C743  1  0.08396000  0.28323000  0.86808000  1
  C  C744  1  0.01690000  0.20645000  0.16813000  1
  C  C745  1  0.51690000  0.70645000  0.33187000  1
  C  C746  1  0.57895000  0.73995000  0.10101000  1
  C  C747  1  0.07895000  0.23995000  0.39899000  1
  C  C748  1  0.51843000  0.67573000  0.00078000  1
  C  C749  1  0.01843000  0.17573000  0.49922000  1
  C  C750  1  0.55123000  0.70566000  0.08452000  1
  C  C751  1  0.05123000  0.20566000  0.41548000  1
  C  C752  1  0.11841000  0.24381000  0.19848000  1
  C  C753  1  0.61841000  0.74381000  0.30152000  1
  C  C754  1  0.08329000  0.20819000  0.18758000  1
  C  C755  1  0.58329000  0.70819000  0.31242000  1
  C  C756  1  0.64079000  0.74229000  0.12072000  1
  C  C757  1  0.14079000  0.24229000  0.37928000  1
  C  C758  1  0.58666000  0.67326000  0.08870000  1
  C  C759  1  0.08666000  0.17326000  0.41130000  1
  C  C760  1  0.17795000  0.24545000  0.21985000  1
  C  C761  1  0.67795000  0.74545000  0.28015000  1
  C  C762  1  0.11222000  0.17482000  0.19698000  1
  C  C763  1  0.61222000  0.67482000  0.30302000  1
  C  C764  1  0.73888000  0.78780000  0.74210000  1
  C  C765  1  0.23888000  0.28780000  0.75790000  1
  C  C766  1  0.67389000  0.70972000  0.12517000  1
  C  C767  1  0.17389000  0.20972000  0.37483000  1
  C  C768  1  0.64606000  0.67496000  0.10941000  1
  C  C769  1  0.14606000  0.17496000  0.39059000  1
  C  C770  1  0.76200000  0.78890000  0.64860000  1
  C  C771  1  0.26200000  0.28890000  0.85140000  1
  C  C772  1  0.20299000  0.21099000  0.23099000  1
  C  C773  1  0.70299000  0.71099000  0.26901000  1
  C  C774  1  0.17005000  0.17580000  0.21871000  1
  C  C775  1  0.67005000  0.67580000  0.28129000  1
  N  N776  1  0.59105000  0.31097000  0.65105000  1
  N  N777  1  0.09105000  0.81097000  0.84895000  1
  N  N778  1  0.56838000  0.27979000  0.62974000  1
  N  N779  1  0.06838000  0.77979000  0.87026000  1
  N  N780  1  0.09403000  0.80306000  0.52159000  1
  N  N781  1  0.59403000  0.30306000  0.97841000  1
  N  N782  1  0.12512000  0.78787000  0.55072000  1
  N  N783  1  0.62512000  0.28787000  0.94928000  1
  N  N784  1  0.64900000  0.27348000  0.02745000  1
  N  N785  1  0.14900000  0.77348000  0.47255000  1
  N  N786  1  0.62921000  0.23428000  0.55469000  1
  N  N787  1  0.12921000  0.73428000  0.94531000  1
  N  N788  1  0.71340000  0.30875000  0.65703000  1
  N  N789  1  0.21340000  0.80875000  0.84297000  1
  N  N790  1  0.17480000  0.74318000  0.09636000  1
  N  N791  1  0.67480000  0.24318000  0.40364000  1
  N  N792  1  0.24150000  0.80501000  0.08482000  1
  N  N793  1  0.74150000  0.30501000  0.41518000  1
  N  N794  1  0.63495000  0.19136000  0.62300000  1
  N  N795  1  0.13495000  0.69136000  0.87700000  1
  N  N796  1  0.69915000  0.25407000  0.01144000  1
  N  N797  1  0.19915000  0.75407000  0.48856000  1
  N  N798  1  0.72204000  0.27506000  0.63987000  1
  N  N799  1  0.22204000  0.77506000  0.86013000  1
  N  N800  1  0.64692000  0.19941000  0.54320000  1
  N  N801  1  0.14692000  0.69941000  0.95680000  1
  N  N802  1  0.65525000  0.16458000  0.59899000  1
  N  N803  1  0.15525000  0.66458000  0.90101000  1
  N  N804  1  0.21103000  0.71705000  0.07870000  1
  N  N805  1  0.71103000  0.21705000  0.42130000  1
  N  N806  1  0.20358000  0.70614000  0.56591000  1
  N  N807  1  0.70358000  0.20614000  0.93409000  1
  N  N808  1  0.29642000  0.79386000  0.06591000  1
  N  N809  1  0.79642000  0.29386000  0.43409000  1
  N  N810  1  0.28897000  0.78295000  0.57870000  1
  N  N811  1  0.78897000  0.28295000  0.92130000  1
  N  N812  1  0.84475000  0.33542000  0.09899000  1
  N  N813  1  0.34475000  0.83542000  0.40101000  1
  N  N814  1  0.85308000  0.30059000  0.04320000  1
  N  N815  1  0.35308000  0.80059000  0.45680000  1
  N  N816  1  0.77796000  0.22494000  0.13987000  1
  N  N817  1  0.27796000  0.72494000  0.36013000  1
  N  N818  1  0.80085000  0.24593000  0.51144000  1
  N  N819  1  0.30085000  0.74593000  0.98856000  1
  N  N820  1  0.86505000  0.30864000  0.12300000  1
  N  N821  1  0.36505000  0.80864000  0.37700000  1
  N  N822  1  0.25850000  0.69499000  0.58482000  1
  N  N823  1  0.75850000  0.19499000  0.91518000  1
  N  N824  1  0.32520000  0.75682000  0.59636000  1
  N  N825  1  0.82520000  0.25682000  0.90364000  1
  N  N826  1  0.78660000  0.19125000  0.15703000  1
  N  N827  1  0.28660000  0.69125000  0.34297000  1
  N  N828  1  0.87079000  0.26572000  0.05469000  1
  N  N829  1  0.37079000  0.76572000  0.44531000  1
  N  N830  1  0.85100000  0.22652000  0.52745000  1
  N  N831  1  0.35100000  0.72652000  0.97255000  1
  N  N832  1  0.37488000  0.71213000  0.05072000  1
  N  N833  1  0.87488000  0.21213000  0.44928000  1
  N  N834  1  0.40597000  0.69694000  0.02159000  1
  N  N835  1  0.90597000  0.19694000  0.47841000  1
  N  N836  1  0.93162000  0.22021000  0.12974000  1
  N  N837  1  0.43162000  0.72021000  0.37026000  1
  N  N838  1  0.90895000  0.18903000  0.15105000  1
  N  N839  1  0.40895000  0.68903000  0.34895000  1
  O  O840  1  0.76249000  0.74395000  0.16079000  1
  O  O841  1  0.26249000  0.24395000  0.33921000  1
  O  O842  1  0.79258000  0.74557000  0.23367000  1
  O  O843  1  0.29258000  0.24557000  0.26633000  1
  O  O844  1  0.76224000  0.67948000  0.15452000  1
  O  O845  1  0.26224000  0.17948000  0.34548000  1
  O  O846  1  0.77260000  0.68011000  0.22863000  1
  O  O847  1  0.27260000  0.18011000  0.27137000  1
  O  O848  1  0.90079000  0.74920000  0.14355000  1
  O  O849  1  0.40079000  0.24920000  0.35645000  1
  O  O850  1  0.93577000  0.74982000  0.21714000  1
  O  O851  1  0.43577000  0.24982000  0.28286000  1
  O  O852  1  0.90221000  0.68433000  0.14733000  1
  O  O853  1  0.40221000  0.18433000  0.35267000  1
  O  O854  1  0.91596000  0.68474000  0.22291000  1
  O  O855  1  0.41596000  0.18474000  0.27709000  1
  O  O856  1  0.49836000  0.09121000  0.16934000  1
  O  O857  1  0.99836000  0.59121000  0.33066000  1
  O  O858  1  0.43323000  0.01577000  0.16614000  1
  O  O859  1  0.93323000  0.51577000  0.33386000  1
  O  O860  1  0.50291000  0.08420000  0.24507000  1
  O  O861  1  0.00291000  0.58420000  0.25493000  1
  O  O862  1  0.43763000  0.01058000  0.24032000  1
  O  O863  1  0.93763000  0.51058000  0.25968000  1
  O  O864  1  0.95485000  0.50845000  0.74022000  1
  O  O865  1  0.45485000  0.00845000  0.75978000  1
  O  O866  1  0.96452000  0.51092000  0.66600000  1
  O  O867  1  0.46452000  0.01092000  0.83400000  1
  O  O868  1  0.89061000  0.43385000  0.73855000  1
  O  O869  1  0.39061000  0.93385000  0.76145000  1
  O  O870  1  0.89928000  0.43340000  0.66259000  1
  O  O871  1  0.39928000  0.93340000  0.83741000  1
  O  O872  1  0.60072000  0.06660000  0.16259000  1
  O  O873  1  0.10072000  0.56660000  0.33741000  1
  O  O874  1  0.60939000  0.06615000  0.23855000  1
  O  O875  1  0.10939000  0.56615000  0.26145000  1
  O  O876  1  0.53548000  0.98908000  0.16600000  1
  O  O877  1  0.03548000  0.48908000  0.33400000  1
  O  O878  1  0.54515000  0.99155000  0.24022000  1
  O  O879  1  0.04515000  0.49155000  0.25978000  1
  O  O880  1  0.06237000  0.48942000  0.74032000  1
  O  O881  1  0.56237000  0.98942000  0.75968000  1
  O  O882  1  0.99709000  0.41580000  0.74507000  1
  O  O883  1  0.49709000  0.91580000  0.75493000  1
  O  O884  1  0.06677000  0.48423000  0.66614000  1
  O  O885  1  0.56677000  0.98423000  0.83386000  1
  O  O886  1  0.00164000  0.40879000  0.66934000  1
  O  O887  1  0.50164000  0.90879000  0.83066000  1
  O  O888  1  0.58404000  0.81526000  0.72291000  1
  O  O889  1  0.08404000  0.31526000  0.77709000  1
  O  O890  1  0.59779000  0.81567000  0.64733000  1
  O  O891  1  0.09779000  0.31567000  0.85267000  1
  O  O892  1  0.56423000  0.75018000  0.71714000  1
  O  O893  1  0.06423000  0.25018000  0.78286000  1
  O  O894  1  0.59921000  0.75080000  0.64355000  1
  O  O895  1  0.09921000  0.25080000  0.85645000  1
  O  O896  1  0.72740000  0.81989000  0.72863000  1
  O  O897  1  0.22740000  0.31989000  0.77137000  1
  O  O898  1  0.73776000  0.82052000  0.65452000  1
  O  O899  1  0.23776000  0.32052000  0.84548000  1
  O  O900  1  0.70742000  0.75443000  0.73367000  1
  O  O901  1  0.20742000  0.25443000  0.76633000  1
  O  O902  1  0.73751000  0.75605000  0.66079000  1
  O  O903  1  0.23751000  0.25605000  0.83921000  1
