# generated using pymatgen
data_CuH10C20NO4
_symmetry_space_group_name_H-M   'P 1'
_cell_length_a   45.54190000
_cell_length_b   45.54190000
_cell_length_c   45.54190000
_cell_angle_alpha   90.00000000
_cell_angle_beta   90.00000000
_cell_angle_gamma   90.00000000
_symmetry_Int_Tables_number   1
_chemical_formula_structural   CuH10C20NO4
_chemical_formula_sum   'Cu48 H480 C960 N48 O192'
_cell_volume   94456.84513933
_cell_formula_units_Z   48
loop_
 _symmetry_equiv_pos_site_id
 _symmetry_equiv_pos_as_xyz
  1  'x, y, z'
loop_
 _atom_site_type_symbol
 _atom_site_label
 _atom_site_symmetry_multiplicity
 _atom_site_fract_x
 _atom_site_fract_y
 _atom_site_fract_z
 _atom_site_occupancy
  Cu  Cu0  1  0.01036000  0.14870000  0.98502000  1
  Cu  Cu1  1  0.01036000  0.35130000  0.48502000  1
  Cu  Cu2  1  0.01498000  0.51036000  0.35130000  1
  Cu  Cu3  1  0.01498000  0.98964000  0.85130000  1
  Cu  Cu4  1  0.01699000  0.51759000  0.29715000  1
  Cu  Cu5  1  0.01699000  0.98241000  0.79715000  1
  Cu  Cu6  1  0.01759000  0.20285000  0.98301000  1
  Cu  Cu7  1  0.01759000  0.29715000  0.48301000  1
  Cu  Cu8  1  0.14870000  0.51498000  0.51036000  1
  Cu  Cu9  1  0.14870000  0.98502000  0.01036000  1
  Cu  Cu10  1  0.20285000  0.51699000  0.51759000  1
  Cu  Cu11  1  0.20285000  0.98301000  0.01759000  1
  Cu  Cu12  1  0.29715000  0.01699000  0.51759000  1
  Cu  Cu13  1  0.29715000  0.48301000  0.01759000  1
  Cu  Cu14  1  0.35130000  0.01498000  0.51036000  1
  Cu  Cu15  1  0.35130000  0.48502000  0.01036000  1
  Cu  Cu16  1  0.48241000  0.70285000  0.98301000  1
  Cu  Cu17  1  0.48241000  0.79715000  0.48301000  1
  Cu  Cu18  1  0.48301000  0.01759000  0.29715000  1
  Cu  Cu19  1  0.48301000  0.48241000  0.79715000  1
  Cu  Cu20  1  0.48502000  0.01036000  0.35130000  1
  Cu  Cu21  1  0.48502000  0.48964000  0.85130000  1
  Cu  Cu22  1  0.48964000  0.64870000  0.98502000  1
  Cu  Cu23  1  0.48964000  0.85130000  0.48502000  1
  Cu  Cu24  1  0.51036000  0.14870000  0.51498000  1
  Cu  Cu25  1  0.51036000  0.35130000  0.01498000  1
  Cu  Cu26  1  0.51498000  0.51036000  0.14870000  1
  Cu  Cu27  1  0.51498000  0.98964000  0.64870000  1
  Cu  Cu28  1  0.51699000  0.51759000  0.20285000  1
  Cu  Cu29  1  0.51699000  0.98241000  0.70285000  1
  Cu  Cu30  1  0.51759000  0.20285000  0.51699000  1
  Cu  Cu31  1  0.51759000  0.29715000  0.01699000  1
  Cu  Cu32  1  0.64870000  0.51498000  0.98964000  1
  Cu  Cu33  1  0.64870000  0.98502000  0.48964000  1
  Cu  Cu34  1  0.70285000  0.51699000  0.98241000  1
  Cu  Cu35  1  0.70285000  0.98301000  0.48241000  1
  Cu  Cu36  1  0.79715000  0.01699000  0.98241000  1
  Cu  Cu37  1  0.79715000  0.48301000  0.48241000  1
  Cu  Cu38  1  0.85130000  0.01498000  0.98964000  1
  Cu  Cu39  1  0.85130000  0.48502000  0.48964000  1
  Cu  Cu40  1  0.98241000  0.70285000  0.51699000  1
  Cu  Cu41  1  0.98241000  0.79715000  0.01699000  1
  Cu  Cu42  1  0.98301000  0.01759000  0.20285000  1
  Cu  Cu43  1  0.98301000  0.48241000  0.70285000  1
  Cu  Cu44  1  0.98502000  0.01036000  0.14870000  1
  Cu  Cu45  1  0.98502000  0.48964000  0.64870000  1
  Cu  Cu46  1  0.98964000  0.64870000  0.51498000  1
  Cu  Cu47  1  0.98964000  0.85130000  0.01498000  1
  H  H48  1  0.00276000  0.13492000  0.07717000  1
  H  H49  1  0.00276000  0.36508000  0.57717000  1
  H  H50  1  0.00684000  0.12429000  0.89655000  1
  H  H51  1  0.00684000  0.37571000  0.39655000  1
  H  H52  1  0.00765000  0.71774000  0.80793000  1
  H  H53  1  0.00765000  0.78226000  0.30793000  1
  H  H54  1  0.00817000  0.08102000  0.86028000  1
  H  H55  1  0.00817000  0.41898000  0.36028000  1
  H  H56  1  0.00887000  0.59964000  0.38108000  1
  H  H57  1  0.00887000  0.90036000  0.88108000  1
  H  H58  1  0.01024000  0.65874000  0.28858000  1
  H  H59  1  0.01024000  0.84126000  0.78858000  1
  H  H60  1  0.01060000  0.66138000  0.72815000  1
  H  H61  1  0.01060000  0.83862000  0.22815000  1
  H  H62  1  0.01659000  0.74163000  0.34371000  1
  H  H63  1  0.01659000  0.75837000  0.84371000  1
  H  H64  1  0.01776000  0.70023000  0.76734000  1
  H  H65  1  0.01776000  0.79977000  0.26734000  1
  H  H66  1  0.02032000  0.60576000  0.28655000  1
  H  H67  1  0.02032000  0.89424000  0.78655000  1
  H  H68  1  0.02080000  0.23338000  0.12230000  1
  H  H69  1  0.02080000  0.26662000  0.62230000  1
  H  H70  1  0.02238000  0.21838000  0.89205000  1
  H  H71  1  0.02238000  0.28162000  0.39205000  1
  H  H72  1  0.02523000  0.06982000  0.76703000  1
  H  H73  1  0.02523000  0.43018000  0.26703000  1
  H  H74  1  0.02612000  0.22705000  0.06892000  1
  H  H75  1  0.02612000  0.27295000  0.56892000  1
  H  H76  1  0.03469000  0.21398000  0.83960000  1
  H  H77  1  0.03469000  0.28602000  0.33960000  1
  H  H78  1  0.03592000  0.12273000  0.76250000  1
  H  H79  1  0.03592000  0.37727000  0.26250000  1
  H  H80  1  0.03666000  0.18268000  0.20738000  1
  H  H81  1  0.03666000  0.31732000  0.70738000  1
  H  H82  1  0.04427000  0.22089000  0.24406000  1
  H  H83  1  0.04427000  0.27911000  0.74406000  1
  H  H84  1  0.06607000  0.23906000  0.75773000  1
  H  H85  1  0.06607000  0.26094000  0.25773000  1
  H  H86  1  0.06892000  0.02612000  0.22705000  1
  H  H87  1  0.06892000  0.47388000  0.72705000  1
  H  H88  1  0.06982000  0.73297000  0.52523000  1
  H  H89  1  0.06982000  0.76703000  0.02523000  1
  H  H90  1  0.07190000  0.20230000  0.79654000  1
  H  H91  1  0.07190000  0.29770000  0.29654000  1
  H  H92  1  0.07717000  0.00276000  0.13492000  1
  H  H93  1  0.07717000  0.49724000  0.63492000  1
  H  H94  1  0.08102000  0.63972000  0.50817000  1
  H  H95  1  0.08102000  0.86028000  0.00817000  1
  H  H96  1  0.09964000  0.11892000  0.99113000  1
  H  H97  1  0.09964000  0.38108000  0.49113000  1
  H  H98  1  0.10345000  0.50684000  0.37571000  1
  H  H99  1  0.10345000  0.99316000  0.87571000  1
  H  H100  1  0.10576000  0.21345000  0.97968000  1
  H  H101  1  0.10576000  0.28655000  0.47968000  1
  H  H102  1  0.10795000  0.52238000  0.28162000  1
  H  H103  1  0.10795000  0.97762000  0.78162000  1
  H  H104  1  0.11892000  0.50887000  0.59964000  1
  H  H105  1  0.11892000  0.99113000  0.09964000  1
  H  H106  1  0.12230000  0.02080000  0.23338000  1
  H  H107  1  0.12230000  0.47920000  0.73338000  1
  H  H108  1  0.12273000  0.73750000  0.53592000  1
  H  H109  1  0.12273000  0.76250000  0.03592000  1
  H  H110  1  0.12429000  0.60345000  0.50684000  1
  H  H111  1  0.12429000  0.89655000  0.00684000  1
  H  H112  1  0.13492000  0.07717000  0.00276000  1
  H  H113  1  0.13492000  0.42283000  0.50276000  1
  H  H114  1  0.13972000  0.50817000  0.41898000  1
  H  H115  1  0.13972000  0.99183000  0.91898000  1
  H  H116  1  0.15629000  0.51659000  0.74163000  1
  H  H117  1  0.15629000  0.98341000  0.24163000  1
  H  H118  1  0.15874000  0.21142000  0.98976000  1
  H  H119  1  0.15874000  0.28858000  0.48976000  1
  H  H120  1  0.16040000  0.53469000  0.28602000  1
  H  H121  1  0.16040000  0.96531000  0.78602000  1
  H  H122  1  0.16138000  0.72815000  0.48940000  1
  H  H123  1  0.16138000  0.77185000  0.98940000  1
  H  H124  1  0.18268000  0.20738000  0.03666000  1
  H  H125  1  0.18268000  0.29262000  0.53666000  1
  H  H126  1  0.19207000  0.50765000  0.78226000  1
  H  H127  1  0.19207000  0.99235000  0.28226000  1
  H  H128  1  0.20023000  0.73266000  0.98224000  1
  H  H129  1  0.20023000  0.76734000  0.48224000  1
  H  H130  1  0.20230000  0.70346000  0.57190000  1
  H  H131  1  0.20230000  0.79654000  0.07190000  1
  H  H132  1  0.20346000  0.57190000  0.29770000  1
  H  H133  1  0.20346000  0.92810000  0.79770000  1
  H  H134  1  0.20738000  0.03666000  0.18268000  1
  H  H135  1  0.20738000  0.46334000  0.68268000  1
  H  H136  1  0.21142000  0.51024000  0.65874000  1
  H  H137  1  0.21142000  0.98976000  0.15874000  1
  H  H138  1  0.21345000  0.52032000  0.60576000  1
  H  H139  1  0.21345000  0.97968000  0.10576000  1
  H  H140  1  0.21398000  0.66040000  0.53469000  1
  H  H141  1  0.21398000  0.83960000  0.03469000  1
  H  H142  1  0.21774000  0.69207000  0.99235000  1
  H  H143  1  0.21774000  0.80793000  0.49235000  1
  H  H144  1  0.21838000  0.60795000  0.52238000  1
  H  H145  1  0.21838000  0.89205000  0.02238000  1
  H  H146  1  0.22089000  0.24406000  0.04427000  1
  H  H147  1  0.22089000  0.25594000  0.54427000  1
  H  H148  1  0.22705000  0.06892000  0.02612000  1
  H  H149  1  0.22705000  0.43108000  0.52612000  1
  H  H150  1  0.22815000  0.01060000  0.83862000  1
  H  H151  1  0.22815000  0.48940000  0.33862000  1
  H  H152  1  0.23266000  0.51776000  0.79977000  1
  H  H153  1  0.23266000  0.98224000  0.29977000  1
  H  H154  1  0.23297000  0.52523000  0.43018000  1
  H  H155  1  0.23297000  0.97477000  0.93018000  1
  H  H156  1  0.23338000  0.12230000  0.02080000  1
  H  H157  1  0.23338000  0.37770000  0.52080000  1
  H  H158  1  0.23750000  0.53592000  0.37727000  1
  H  H159  1  0.23750000  0.96408000  0.87727000  1
  H  H160  1  0.23906000  0.74227000  0.56607000  1
  H  H161  1  0.23906000  0.75773000  0.06607000  1
  H  H162  1  0.24163000  0.15629000  0.98341000  1
  H  H163  1  0.24163000  0.34371000  0.48341000  1
  H  H164  1  0.24227000  0.56607000  0.26094000  1
  H  H165  1  0.24227000  0.93393000  0.76094000  1
  H  H166  1  0.24406000  0.04427000  0.22089000  1
  H  H167  1  0.24406000  0.45573000  0.72089000  1
  H  H168  1  0.25594000  0.54427000  0.22089000  1
  H  H169  1  0.25594000  0.95573000  0.72089000  1
  H  H170  1  0.25773000  0.06607000  0.26094000  1
  H  H171  1  0.25773000  0.43393000  0.76094000  1
  H  H172  1  0.25837000  0.65629000  0.98341000  1
  H  H173  1  0.25837000  0.84371000  0.48341000  1
  H  H174  1  0.26094000  0.24227000  0.56607000  1
  H  H175  1  0.26094000  0.25773000  0.06607000  1
  H  H176  1  0.26250000  0.03592000  0.37727000  1
  H  H177  1  0.26250000  0.46408000  0.87727000  1
  H  H178  1  0.26662000  0.62230000  0.02080000  1
  H  H179  1  0.26662000  0.87770000  0.52080000  1
  H  H180  1  0.26703000  0.02523000  0.43018000  1
  H  H181  1  0.26703000  0.47477000  0.93018000  1
  H  H182  1  0.26734000  0.01776000  0.79977000  1
  H  H183  1  0.26734000  0.48224000  0.29977000  1
  H  H184  1  0.27185000  0.51060000  0.83862000  1
  H  H185  1  0.27185000  0.98940000  0.33862000  1
  H  H186  1  0.27295000  0.56892000  0.02612000  1
  H  H187  1  0.27295000  0.93108000  0.52612000  1
  H  H188  1  0.27911000  0.74406000  0.04427000  1
  H  H189  1  0.27911000  0.75594000  0.54427000  1
  H  H190  1  0.28162000  0.10795000  0.52238000  1
  H  H191  1  0.28162000  0.39205000  0.02238000  1
  H  H192  1  0.28226000  0.19207000  0.99235000  1
  H  H193  1  0.28226000  0.30793000  0.49235000  1
  H  H194  1  0.28602000  0.16040000  0.53469000  1
  H  H195  1  0.28602000  0.33960000  0.03469000  1
  H  H196  1  0.28655000  0.02032000  0.60576000  1
  H  H197  1  0.28655000  0.47968000  0.10576000  1
  H  H198  1  0.28858000  0.01024000  0.65874000  1
  H  H199  1  0.28858000  0.48976000  0.15874000  1
  H  H200  1  0.29262000  0.53666000  0.18268000  1
  H  H201  1  0.29262000  0.96334000  0.68268000  1
  H  H202  1  0.29654000  0.07190000  0.29770000  1
  H  H203  1  0.29654000  0.42810000  0.79770000  1
  H  H204  1  0.29770000  0.20346000  0.57190000  1
  H  H205  1  0.29770000  0.29654000  0.07190000  1
  H  H206  1  0.29977000  0.23266000  0.98224000  1
  H  H207  1  0.29977000  0.26734000  0.48224000  1
  H  H208  1  0.30793000  0.00765000  0.78226000  1
  H  H209  1  0.30793000  0.49235000  0.28226000  1
  H  H210  1  0.31732000  0.70738000  0.03666000  1
  H  H211  1  0.31732000  0.79262000  0.53666000  1
  H  H212  1  0.33862000  0.22815000  0.48940000  1
  H  H213  1  0.33862000  0.27185000  0.98940000  1
  H  H214  1  0.33960000  0.03469000  0.28602000  1
  H  H215  1  0.33960000  0.46531000  0.78602000  1
  H  H216  1  0.34126000  0.71142000  0.98976000  1
  H  H217  1  0.34126000  0.78858000  0.48976000  1
  H  H218  1  0.34371000  0.01659000  0.74163000  1
  H  H219  1  0.34371000  0.48341000  0.24163000  1
  H  H220  1  0.36028000  0.00817000  0.41898000  1
  H  H221  1  0.36028000  0.49183000  0.91898000  1
  H  H222  1  0.36508000  0.57717000  0.00276000  1
  H  H223  1  0.36508000  0.92283000  0.50276000  1
  H  H224  1  0.37571000  0.10345000  0.50684000  1
  H  H225  1  0.37571000  0.39655000  0.00684000  1
  H  H226  1  0.37727000  0.23750000  0.53592000  1
  H  H227  1  0.37727000  0.26250000  0.03592000  1
  H  H228  1  0.37770000  0.52080000  0.23338000  1
  H  H229  1  0.37770000  0.97920000  0.73338000  1
  H  H230  1  0.38108000  0.00887000  0.59964000  1
  H  H231  1  0.38108000  0.49113000  0.09964000  1
  H  H232  1  0.39205000  0.02238000  0.28162000  1
  H  H233  1  0.39205000  0.47762000  0.78162000  1
  H  H234  1  0.39424000  0.71345000  0.97968000  1
  H  H235  1  0.39424000  0.78655000  0.47968000  1
  H  H236  1  0.39655000  0.00684000  0.37571000  1
  H  H237  1  0.39655000  0.49316000  0.87571000  1
  H  H238  1  0.40036000  0.61892000  0.99113000  1
  H  H239  1  0.40036000  0.88108000  0.49113000  1
  H  H240  1  0.41898000  0.13972000  0.50817000  1
  H  H241  1  0.41898000  0.36028000  0.00817000  1
  H  H242  1  0.42283000  0.50276000  0.13492000  1
  H  H243  1  0.42283000  0.99724000  0.63492000  1
  H  H244  1  0.42810000  0.70230000  0.79654000  1
  H  H245  1  0.42810000  0.79770000  0.29654000  1
  H  H246  1  0.43018000  0.23297000  0.52523000  1
  H  H247  1  0.43018000  0.26703000  0.02523000  1
  H  H248  1  0.43108000  0.52612000  0.22705000  1
  H  H249  1  0.43108000  0.97388000  0.72705000  1
  H  H250  1  0.43393000  0.73906000  0.75773000  1
  H  H251  1  0.43393000  0.76094000  0.25773000  1
  H  H252  1  0.45573000  0.72089000  0.24406000  1
  H  H253  1  0.45573000  0.77911000  0.74406000  1
  H  H254  1  0.46334000  0.68268000  0.20738000  1
  H  H255  1  0.46334000  0.81732000  0.70738000  1
  H  H256  1  0.46408000  0.62273000  0.76250000  1
  H  H257  1  0.46408000  0.87727000  0.26250000  1
  H  H258  1  0.46531000  0.71398000  0.83960000  1
  H  H259  1  0.46531000  0.78602000  0.33960000  1
  H  H260  1  0.47388000  0.72705000  0.06892000  1
  H  H261  1  0.47388000  0.77295000  0.56892000  1
  H  H262  1  0.47477000  0.56982000  0.76703000  1
  H  H263  1  0.47477000  0.93018000  0.26703000  1
  H  H264  1  0.47762000  0.71838000  0.89205000  1
  H  H265  1  0.47762000  0.78162000  0.39205000  1
  H  H266  1  0.47920000  0.73338000  0.12230000  1
  H  H267  1  0.47920000  0.76662000  0.62230000  1
  H  H268  1  0.47968000  0.10576000  0.28655000  1
  H  H269  1  0.47968000  0.39424000  0.78655000  1
  H  H270  1  0.48224000  0.20023000  0.76734000  1
  H  H271  1  0.48224000  0.29977000  0.26734000  1
  H  H272  1  0.48341000  0.24163000  0.34371000  1
  H  H273  1  0.48341000  0.25837000  0.84371000  1
  H  H274  1  0.48940000  0.16138000  0.72815000  1
  H  H275  1  0.48940000  0.33862000  0.22815000  1
  H  H276  1  0.48976000  0.15874000  0.28858000  1
  H  H277  1  0.48976000  0.34126000  0.78858000  1
  H  H278  1  0.49113000  0.09964000  0.38108000  1
  H  H279  1  0.49113000  0.40036000  0.88108000  1
  H  H280  1  0.49183000  0.58102000  0.86028000  1
  H  H281  1  0.49183000  0.91898000  0.36028000  1
  H  H282  1  0.49235000  0.21774000  0.80793000  1
  H  H283  1  0.49235000  0.28226000  0.30793000  1
  H  H284  1  0.49316000  0.62429000  0.89655000  1
  H  H285  1  0.49316000  0.87571000  0.39655000  1
  H  H286  1  0.49724000  0.63492000  0.07717000  1
  H  H287  1  0.49724000  0.86508000  0.57717000  1
  H  H288  1  0.50276000  0.13492000  0.42283000  1
  H  H289  1  0.50276000  0.36508000  0.92283000  1
  H  H290  1  0.50684000  0.12429000  0.60345000  1
  H  H291  1  0.50684000  0.37571000  0.10345000  1
  H  H292  1  0.50765000  0.71774000  0.69207000  1
  H  H293  1  0.50765000  0.78226000  0.19207000  1
  H  H294  1  0.50817000  0.08102000  0.63972000  1
  H  H295  1  0.50817000  0.41898000  0.13972000  1
  H  H296  1  0.50887000  0.59964000  0.11892000  1
  H  H297  1  0.50887000  0.90036000  0.61892000  1
  H  H298  1  0.51024000  0.65874000  0.21142000  1
  H  H299  1  0.51024000  0.84126000  0.71142000  1
  H  H300  1  0.51060000  0.66138000  0.77185000  1
  H  H301  1  0.51060000  0.83862000  0.27185000  1
  H  H302  1  0.51659000  0.74163000  0.15629000  1
  H  H303  1  0.51659000  0.75837000  0.65629000  1
  H  H304  1  0.51776000  0.70023000  0.73266000  1
  H  H305  1  0.51776000  0.79977000  0.23266000  1
  H  H306  1  0.52032000  0.60576000  0.21345000  1
  H  H307  1  0.52032000  0.89424000  0.71345000  1
  H  H308  1  0.52080000  0.23338000  0.37770000  1
  H  H309  1  0.52080000  0.26662000  0.87770000  1
  H  H310  1  0.52238000  0.21838000  0.60795000  1
  H  H311  1  0.52238000  0.28162000  0.10795000  1
  H  H312  1  0.52523000  0.06982000  0.73297000  1
  H  H313  1  0.52523000  0.43018000  0.23297000  1
  H  H314  1  0.52612000  0.22705000  0.43108000  1
  H  H315  1  0.52612000  0.27295000  0.93108000  1
  H  H316  1  0.53469000  0.21398000  0.66040000  1
  H  H317  1  0.53469000  0.28602000  0.16040000  1
  H  H318  1  0.53592000  0.12273000  0.73750000  1
  H  H319  1  0.53592000  0.37727000  0.23750000  1
  H  H320  1  0.53666000  0.18268000  0.29262000  1
  H  H321  1  0.53666000  0.31732000  0.79262000  1
  H  H322  1  0.54427000  0.22089000  0.25594000  1
  H  H323  1  0.54427000  0.27911000  0.75594000  1
  H  H324  1  0.56607000  0.23906000  0.74227000  1
  H  H325  1  0.56607000  0.26094000  0.24227000  1
  H  H326  1  0.56892000  0.02612000  0.27295000  1
  H  H327  1  0.56892000  0.47388000  0.77295000  1
  H  H328  1  0.56982000  0.73297000  0.97477000  1
  H  H329  1  0.56982000  0.76703000  0.47477000  1
  H  H330  1  0.57190000  0.20230000  0.70346000  1
  H  H331  1  0.57190000  0.29770000  0.20346000  1
  H  H332  1  0.57717000  0.00276000  0.36508000  1
  H  H333  1  0.57717000  0.49724000  0.86508000  1
  H  H334  1  0.58102000  0.63972000  0.99183000  1
  H  H335  1  0.58102000  0.86028000  0.49183000  1
  H  H336  1  0.59964000  0.11892000  0.50887000  1
  H  H337  1  0.59964000  0.38108000  0.00887000  1
  H  H338  1  0.60345000  0.50684000  0.12429000  1
  H  H339  1  0.60345000  0.99316000  0.62429000  1
  H  H340  1  0.60576000  0.21345000  0.52032000  1
  H  H341  1  0.60576000  0.28655000  0.02032000  1
  H  H342  1  0.60795000  0.52238000  0.21838000  1
  H  H343  1  0.60795000  0.97762000  0.71838000  1
  H  H344  1  0.61892000  0.50887000  0.90036000  1
  H  H345  1  0.61892000  0.99113000  0.40036000  1
  H  H346  1  0.62230000  0.02080000  0.26662000  1
  H  H347  1  0.62230000  0.47920000  0.76662000  1
  H  H348  1  0.62273000  0.73750000  0.96408000  1
  H  H349  1  0.62273000  0.76250000  0.46408000  1
  H  H350  1  0.62429000  0.60345000  0.99316000  1
  H  H351  1  0.62429000  0.89655000  0.49316000  1
  H  H352  1  0.63492000  0.07717000  0.49724000  1
  H  H353  1  0.63492000  0.42283000  0.99724000  1
  H  H354  1  0.63972000  0.50817000  0.08102000  1
  H  H355  1  0.63972000  0.99183000  0.58102000  1
  H  H356  1  0.65629000  0.51659000  0.75837000  1
  H  H357  1  0.65629000  0.98341000  0.25837000  1
  H  H358  1  0.65874000  0.21142000  0.51024000  1
  H  H359  1  0.65874000  0.28858000  0.01024000  1
  H  H360  1  0.66040000  0.53469000  0.21398000  1
  H  H361  1  0.66040000  0.96531000  0.71398000  1
  H  H362  1  0.66138000  0.72815000  0.01060000  1
  H  H363  1  0.66138000  0.77185000  0.51060000  1
  H  H364  1  0.68268000  0.20738000  0.46334000  1
  H  H365  1  0.68268000  0.29262000  0.96334000  1
  H  H366  1  0.69207000  0.50765000  0.71774000  1
  H  H367  1  0.69207000  0.99235000  0.21774000  1
  H  H368  1  0.70023000  0.73266000  0.51776000  1
  H  H369  1  0.70023000  0.76734000  0.01776000  1
  H  H370  1  0.70230000  0.70346000  0.92810000  1
  H  H371  1  0.70230000  0.79654000  0.42810000  1
  H  H372  1  0.70346000  0.57190000  0.20230000  1
  H  H373  1  0.70346000  0.92810000  0.70230000  1
  H  H374  1  0.70738000  0.03666000  0.31732000  1
  H  H375  1  0.70738000  0.46334000  0.81732000  1
  H  H376  1  0.71142000  0.51024000  0.84126000  1
  H  H377  1  0.71142000  0.98976000  0.34126000  1
  H  H378  1  0.71345000  0.52032000  0.89424000  1
  H  H379  1  0.71345000  0.97968000  0.39424000  1
  H  H380  1  0.71398000  0.66040000  0.96531000  1
  H  H381  1  0.71398000  0.83960000  0.46531000  1
  H  H382  1  0.71774000  0.69207000  0.50765000  1
  H  H383  1  0.71774000  0.80793000  0.00765000  1
  H  H384  1  0.71838000  0.60795000  0.97762000  1
  H  H385  1  0.71838000  0.89205000  0.47762000  1
  H  H386  1  0.72089000  0.24406000  0.45573000  1
  H  H387  1  0.72089000  0.25594000  0.95573000  1
  H  H388  1  0.72705000  0.06892000  0.47388000  1
  H  H389  1  0.72705000  0.43108000  0.97388000  1
  H  H390  1  0.72815000  0.01060000  0.66138000  1
  H  H391  1  0.72815000  0.48940000  0.16138000  1
  H  H392  1  0.73266000  0.51776000  0.70023000  1
  H  H393  1  0.73266000  0.98224000  0.20023000  1
  H  H394  1  0.73297000  0.52523000  0.06982000  1
  H  H395  1  0.73297000  0.97477000  0.56982000  1
  H  H396  1  0.73338000  0.12230000  0.47920000  1
  H  H397  1  0.73338000  0.37770000  0.97920000  1
  H  H398  1  0.73750000  0.53592000  0.12273000  1
  H  H399  1  0.73750000  0.96408000  0.62273000  1
  H  H400  1  0.73906000  0.74227000  0.93393000  1
  H  H401  1  0.73906000  0.75773000  0.43393000  1
  H  H402  1  0.74163000  0.15629000  0.51659000  1
  H  H403  1  0.74163000  0.34371000  0.01659000  1
  H  H404  1  0.74227000  0.56607000  0.23906000  1
  H  H405  1  0.74227000  0.93393000  0.73906000  1
  H  H406  1  0.74406000  0.04427000  0.27911000  1
  H  H407  1  0.74406000  0.45573000  0.77911000  1
  H  H408  1  0.75594000  0.54427000  0.27911000  1
  H  H409  1  0.75594000  0.95573000  0.77911000  1
  H  H410  1  0.75773000  0.06607000  0.23906000  1
  H  H411  1  0.75773000  0.43393000  0.73906000  1
  H  H412  1  0.75837000  0.65629000  0.51659000  1
  H  H413  1  0.75837000  0.84371000  0.01659000  1
  H  H414  1  0.76094000  0.24227000  0.93393000  1
  H  H415  1  0.76094000  0.25773000  0.43393000  1
  H  H416  1  0.76250000  0.03592000  0.12273000  1
  H  H417  1  0.76250000  0.46408000  0.62273000  1
  H  H418  1  0.76662000  0.62230000  0.47920000  1
  H  H419  1  0.76662000  0.87770000  0.97920000  1
  H  H420  1  0.76703000  0.02523000  0.06982000  1
  H  H421  1  0.76703000  0.47477000  0.56982000  1
  H  H422  1  0.76734000  0.01776000  0.70023000  1
  H  H423  1  0.76734000  0.48224000  0.20023000  1
  H  H424  1  0.77185000  0.51060000  0.66138000  1
  H  H425  1  0.77185000  0.98940000  0.16138000  1
  H  H426  1  0.77295000  0.56892000  0.47388000  1
  H  H427  1  0.77295000  0.93108000  0.97388000  1
  H  H428  1  0.77911000  0.74406000  0.45573000  1
  H  H429  1  0.77911000  0.75594000  0.95573000  1
  H  H430  1  0.78162000  0.10795000  0.97762000  1
  H  H431  1  0.78162000  0.39205000  0.47762000  1
  H  H432  1  0.78226000  0.19207000  0.50765000  1
  H  H433  1  0.78226000  0.30793000  0.00765000  1
  H  H434  1  0.78602000  0.16040000  0.96531000  1
  H  H435  1  0.78602000  0.33960000  0.46531000  1
  H  H436  1  0.78655000  0.02032000  0.89424000  1
  H  H437  1  0.78655000  0.47968000  0.39424000  1
  H  H438  1  0.78858000  0.01024000  0.84126000  1
  H  H439  1  0.78858000  0.48976000  0.34126000  1
  H  H440  1  0.79262000  0.53666000  0.31732000  1
  H  H441  1  0.79262000  0.96334000  0.81732000  1
  H  H442  1  0.79654000  0.07190000  0.20230000  1
  H  H443  1  0.79654000  0.42810000  0.70230000  1
  H  H444  1  0.79770000  0.20346000  0.92810000  1
  H  H445  1  0.79770000  0.29654000  0.42810000  1
  H  H446  1  0.79977000  0.23266000  0.51776000  1
  H  H447  1  0.79977000  0.26734000  0.01776000  1
  H  H448  1  0.80793000  0.00765000  0.71774000  1
  H  H449  1  0.80793000  0.49235000  0.21774000  1
  H  H450  1  0.81732000  0.70738000  0.46334000  1
  H  H451  1  0.81732000  0.79262000  0.96334000  1
  H  H452  1  0.83862000  0.22815000  0.01060000  1
  H  H453  1  0.83862000  0.27185000  0.51060000  1
  H  H454  1  0.83960000  0.03469000  0.21398000  1
  H  H455  1  0.83960000  0.46531000  0.71398000  1
  H  H456  1  0.84126000  0.71142000  0.51024000  1
  H  H457  1  0.84126000  0.78858000  0.01024000  1
  H  H458  1  0.84371000  0.01659000  0.75837000  1
  H  H459  1  0.84371000  0.48341000  0.25837000  1
  H  H460  1  0.86028000  0.00817000  0.08102000  1
  H  H461  1  0.86028000  0.49183000  0.58102000  1
  H  H462  1  0.86508000  0.57717000  0.49724000  1
  H  H463  1  0.86508000  0.92283000  0.99724000  1
  H  H464  1  0.87571000  0.10345000  0.99316000  1
  H  H465  1  0.87571000  0.39655000  0.49316000  1
  H  H466  1  0.87727000  0.23750000  0.96408000  1
  H  H467  1  0.87727000  0.26250000  0.46408000  1
  H  H468  1  0.87770000  0.52080000  0.26662000  1
  H  H469  1  0.87770000  0.97920000  0.76662000  1
  H  H470  1  0.88108000  0.00887000  0.90036000  1
  H  H471  1  0.88108000  0.49113000  0.40036000  1
  H  H472  1  0.89205000  0.02238000  0.21838000  1
  H  H473  1  0.89205000  0.47762000  0.71838000  1
  H  H474  1  0.89424000  0.71345000  0.52032000  1
  H  H475  1  0.89424000  0.78655000  0.02032000  1
  H  H476  1  0.89655000  0.00684000  0.12429000  1
  H  H477  1  0.89655000  0.49316000  0.62429000  1
  H  H478  1  0.90036000  0.61892000  0.50887000  1
  H  H479  1  0.90036000  0.88108000  0.00887000  1
  H  H480  1  0.91898000  0.13972000  0.99183000  1
  H  H481  1  0.91898000  0.36028000  0.49183000  1
  H  H482  1  0.92283000  0.50276000  0.36508000  1
  H  H483  1  0.92283000  0.99724000  0.86508000  1
  H  H484  1  0.92810000  0.70230000  0.70346000  1
  H  H485  1  0.92810000  0.79770000  0.20346000  1
  H  H486  1  0.93018000  0.23297000  0.97477000  1
  H  H487  1  0.93018000  0.26703000  0.47477000  1
  H  H488  1  0.93108000  0.52612000  0.27295000  1
  H  H489  1  0.93108000  0.97388000  0.77295000  1
  H  H490  1  0.93393000  0.73906000  0.74227000  1
  H  H491  1  0.93393000  0.76094000  0.24227000  1
  H  H492  1  0.95573000  0.72089000  0.25594000  1
  H  H493  1  0.95573000  0.77911000  0.75594000  1
  H  H494  1  0.96334000  0.68268000  0.29262000  1
  H  H495  1  0.96334000  0.81732000  0.79262000  1
  H  H496  1  0.96408000  0.62273000  0.73750000  1
  H  H497  1  0.96408000  0.87727000  0.23750000  1
  H  H498  1  0.96531000  0.71398000  0.66040000  1
  H  H499  1  0.96531000  0.78602000  0.16040000  1
  H  H500  1  0.97388000  0.72705000  0.43108000  1
  H  H501  1  0.97388000  0.77295000  0.93108000  1
  H  H502  1  0.97477000  0.56982000  0.73297000  1
  H  H503  1  0.97477000  0.93018000  0.23297000  1
  H  H504  1  0.97762000  0.71838000  0.60795000  1
  H  H505  1  0.97762000  0.78162000  0.10795000  1
  H  H506  1  0.97920000  0.73338000  0.37770000  1
  H  H507  1  0.97920000  0.76662000  0.87770000  1
  H  H508  1  0.97968000  0.10576000  0.21345000  1
  H  H509  1  0.97968000  0.39424000  0.71345000  1
  H  H510  1  0.98224000  0.20023000  0.73266000  1
  H  H511  1  0.98224000  0.29977000  0.23266000  1
  H  H512  1  0.98341000  0.24163000  0.15629000  1
  H  H513  1  0.98341000  0.25837000  0.65629000  1
  H  H514  1  0.98940000  0.16138000  0.77185000  1
  H  H515  1  0.98940000  0.33862000  0.27185000  1
  H  H516  1  0.98976000  0.15874000  0.21142000  1
  H  H517  1  0.98976000  0.34126000  0.71142000  1
  H  H518  1  0.99113000  0.09964000  0.11892000  1
  H  H519  1  0.99113000  0.40036000  0.61892000  1
  H  H520  1  0.99183000  0.58102000  0.63972000  1
  H  H521  1  0.99183000  0.91898000  0.13972000  1
  H  H522  1  0.99235000  0.21774000  0.69207000  1
  H  H523  1  0.99235000  0.28226000  0.19207000  1
  H  H524  1  0.99316000  0.62429000  0.60345000  1
  H  H525  1  0.99316000  0.87571000  0.10345000  1
  H  H526  1  0.99724000  0.63492000  0.42283000  1
  H  H527  1  0.99724000  0.86508000  0.92283000  1
  C  C528  1  0.00208000  0.24050000  0.69571000  1
  C  C529  1  0.00208000  0.25950000  0.19571000  1
  C  C530  1  0.00259000  0.20073000  0.74719000  1
  C  C531  1  0.00259000  0.29927000  0.24719000  1
  C  C532  1  0.00289000  0.73724000  0.32480000  1
  C  C533  1  0.00289000  0.76276000  0.82480000  1
  C  C534  1  0.00321000  0.65856000  0.33561000  1
  C  C535  1  0.00321000  0.84144000  0.83561000  1
  C  C536  1  0.00327000  0.16107000  0.11651000  1
  C  C537  1  0.00327000  0.33893000  0.61651000  1
  C  C538  1  0.00368000  0.64211000  0.36100000  1
  C  C539  1  0.00368000  0.85789000  0.86100000  1
  C  C540  1  0.00645000  0.17943000  0.76887000  1
  C  C541  1  0.00645000  0.32057000  0.26887000  1
  C  C542  1  0.00650000  0.15646000  0.08647000  1
  C  C543  1  0.00650000  0.34354000  0.58647000  1
  C  C544  1  0.00782000  0.18816000  0.12927000  1
  C  C545  1  0.00782000  0.31184000  0.62927000  1
  C  C546  1  0.00927000  0.20932000  0.17936000  1
  C  C547  1  0.00927000  0.29068000  0.67936000  1
  C  C548  1  0.00942000  0.61207000  0.36085000  1
  C  C549  1  0.00942000  0.88793000  0.86085000  1
  C  C550  1  0.00979000  0.64591000  0.30852000  1
  C  C551  1  0.00979000  0.85409000  0.80852000  1
  C  C552  1  0.01146000  0.17310000  0.93006000  1
  C  C553  1  0.01146000  0.32690000  0.43006000  1
  C  C554  1  0.01324000  0.14388000  0.88473000  1
  C  C555  1  0.01324000  0.35612000  0.38473000  1
  C  C556  1  0.01382000  0.17172000  0.89850000  1
  C  C557  1  0.01382000  0.32828000  0.39850000  1
  C  C558  1  0.01412000  0.03964000  0.81782000  1
  C  C559  1  0.01412000  0.46036000  0.31782000  1
  C  C560  1  0.01428000  0.08955000  0.83897000  1
  C  C561  1  0.01428000  0.41045000  0.33897000  1
  C  C562  1  0.01459000  0.18062000  0.06878000  1
  C  C563  1  0.01459000  0.31938000  0.56878000  1
  C  C564  1  0.01474000  0.17814000  0.03706000  1
  C  C565  1  0.01474000  0.32186000  0.53706000  1
  C  C566  1  0.01521000  0.59846000  0.33356000  1
  C  C567  1  0.01521000  0.90154000  0.83356000  1
  C  C568  1  0.01575000  0.61572000  0.30762000  1
  C  C569  1  0.01575000  0.88428000  0.80762000  1
  C  C570  1  0.01598000  0.07121000  0.81397000  1
  C  C571  1  0.01598000  0.42879000  0.31397000  1
  C  C572  1  0.01634000  0.56679000  0.33056000  1
  C  C573  1  0.01634000  0.93321000  0.83056000  1
  C  C574  1  0.01645000  0.21224000  0.11246000  1
  C  C575  1  0.01645000  0.28776000  0.61246000  1
  C  C576  1  0.01907000  0.24591000  0.72094000  1
  C  C577  1  0.01907000  0.25409000  0.22094000  1
  C  C578  1  0.01958000  0.20837000  0.08205000  1
  C  C579  1  0.01958000  0.29163000  0.58205000  1
  C  C580  1  0.02065000  0.14234000  0.85508000  1
  C  C581  1  0.02065000  0.35766000  0.35508000  1
  C  C582  1  0.02075000  0.11925000  0.83548000  1
  C  C583  1  0.02075000  0.38075000  0.33548000  1
  C  C584  1  0.02197000  0.19686000  0.88198000  1
  C  C585  1  0.02197000  0.30314000  0.38198000  1
  C  C586  1  0.02367000  0.22293000  0.74308000  1
  C  C587  1  0.02367000  0.27707000  0.24308000  1
  C  C588  1  0.02394000  0.08348000  0.78642000  1
  C  C589  1  0.02394000  0.41652000  0.28642000  1
  C  C590  1  0.02685000  0.20405000  0.20402000  1
  C  C591  1  0.02685000  0.29595000  0.70402000  1
  C  C592  1  0.02823000  0.13099000  0.80858000  1
  C  C593  1  0.02823000  0.36901000  0.30858000  1
  C  C594  1  0.02830000  0.16693000  0.83917000  1
  C  C595  1  0.02830000  0.33307000  0.33917000  1
  C  C596  1  0.02907000  0.19461000  0.85212000  1
  C  C597  1  0.02907000  0.30539000  0.35212000  1
  C  C598  1  0.02999000  0.11353000  0.78356000  1
  C  C599  1  0.02999000  0.38647000  0.28356000  1
  C  C600  1  0.03122000  0.18015000  0.78700000  1
  C  C601  1  0.03122000  0.31985000  0.28700000  1
  C  C602  1  0.03152000  0.22609000  0.22472000  1
  C  C603  1  0.03152000  0.27391000  0.72472000  1
  C  C604  1  0.03706000  0.01474000  0.17814000  1
  C  C605  1  0.03706000  0.48526000  0.67814000  1
  C  C606  1  0.03964000  0.68218000  0.51412000  1
  C  C607  1  0.03964000  0.81782000  0.01412000  1
  C  C608  1  0.04910000  0.22272000  0.76066000  1
  C  C609  1  0.04910000  0.27728000  0.26066000  1
  C  C610  1  0.05267000  0.20164000  0.78261000  1
  C  C611  1  0.05267000  0.29836000  0.28261000  1
  C  C612  1  0.06679000  0.16944000  0.98366000  1
  C  C613  1  0.06679000  0.33056000  0.48366000  1
  C  C614  1  0.06878000  0.01459000  0.18062000  1
  C  C615  1  0.06878000  0.48541000  0.68062000  1
  C  C616  1  0.06994000  0.51146000  0.32690000  1
  C  C617  1  0.06994000  0.98854000  0.82690000  1
  C  C618  1  0.07121000  0.68603000  0.51598000  1
  C  C619  1  0.07121000  0.81397000  0.01598000  1
  C  C620  1  0.08205000  0.01958000  0.20837000  1
  C  C621  1  0.08205000  0.48042000  0.70837000  1
  C  C622  1  0.08348000  0.71358000  0.52394000  1
  C  C623  1  0.08348000  0.78642000  0.02394000  1
  C  C624  1  0.08647000  0.00650000  0.15646000  1
  C  C625  1  0.08647000  0.49350000  0.65646000  1
  C  C626  1  0.08955000  0.66103000  0.51428000  1
  C  C627  1  0.08955000  0.83897000  0.01428000  1
  C  C628  1  0.09846000  0.16644000  0.98479000  1
  C  C629  1  0.09846000  0.33356000  0.48479000  1
  C  C630  1  0.10150000  0.51382000  0.32828000  1
  C  C631  1  0.10150000  0.98618000  0.82828000  1
  C  C632  1  0.11207000  0.13915000  0.99058000  1
  C  C633  1  0.11207000  0.36085000  0.49058000  1
  C  C634  1  0.11246000  0.01645000  0.21224000  1
  C  C635  1  0.11246000  0.48355000  0.71224000  1
  C  C636  1  0.11353000  0.71644000  0.52999000  1
  C  C637  1  0.11353000  0.78356000  0.02999000  1
  C  C638  1  0.11527000  0.51324000  0.35612000  1
  C  C639  1  0.11527000  0.98676000  0.85612000  1
  C  C640  1  0.11572000  0.19238000  0.98425000  1
  C  C641  1  0.11572000  0.30762000  0.48425000  1
  C  C642  1  0.11651000  0.00327000  0.16107000  1
  C  C643  1  0.11651000  0.49673000  0.66107000  1
  C  C644  1  0.11802000  0.52197000  0.30314000  1
  C  C645  1  0.11802000  0.97803000  0.80314000  1
  C  C646  1  0.11925000  0.66452000  0.52075000  1
  C  C647  1  0.11925000  0.83548000  0.02075000  1
  C  C648  1  0.12927000  0.00782000  0.18816000  1
  C  C649  1  0.12927000  0.49218000  0.68816000  1
  C  C650  1  0.13099000  0.69142000  0.52823000  1
  C  C651  1  0.13099000  0.80858000  0.02823000  1
  C  C652  1  0.13900000  0.50368000  0.64211000  1
  C  C653  1  0.13900000  0.99632000  0.14211000  1
  C  C654  1  0.13915000  0.50942000  0.61207000  1
  C  C655  1  0.13915000  0.99058000  0.11207000  1
  C  C656  1  0.14211000  0.13900000  0.99632000  1
  C  C657  1  0.14211000  0.36100000  0.49632000  1
  C  C658  1  0.14234000  0.64492000  0.52065000  1
  C  C659  1  0.14234000  0.85508000  0.02065000  1
  C  C660  1  0.14388000  0.61527000  0.51324000  1
  C  C661  1  0.14388000  0.88473000  0.01324000  1
  C  C662  1  0.14492000  0.52065000  0.35766000  1
  C  C663  1  0.14492000  0.97935000  0.85766000  1
  C  C664  1  0.14591000  0.19148000  0.99021000  1
  C  C665  1  0.14591000  0.30852000  0.49021000  1
  C  C666  1  0.14788000  0.52907000  0.30539000  1
  C  C667  1  0.14788000  0.97093000  0.80539000  1
  C  C668  1  0.15646000  0.08647000  0.00650000  1
  C  C669  1  0.15646000  0.41353000  0.50650000  1
  C  C670  1  0.15856000  0.16439000  0.99679000  1
  C  C671  1  0.15856000  0.33561000  0.49679000  1
  C  C672  1  0.16083000  0.52830000  0.33307000  1
  C  C673  1  0.16083000  0.97170000  0.83307000  1
  C  C674  1  0.16103000  0.51428000  0.41045000  1
  C  C675  1  0.16103000  0.98572000  0.91045000  1
  C  C676  1  0.16107000  0.11651000  0.00327000  1
  C  C677  1  0.16107000  0.38349000  0.50327000  1
  C  C678  1  0.16439000  0.50321000  0.65856000  1
  C  C679  1  0.16439000  0.99679000  0.15856000  1
  C  C680  1  0.16452000  0.52075000  0.38075000  1
  C  C681  1  0.16452000  0.97925000  0.88075000  1
  C  C682  1  0.16644000  0.51521000  0.59846000  1
  C  C683  1  0.16644000  0.98479000  0.09846000  1
  C  C684  1  0.16693000  0.66083000  0.52830000  1
  C  C685  1  0.16693000  0.83917000  0.02830000  1
  C  C686  1  0.16944000  0.51634000  0.56679000  1
  C  C687  1  0.16944000  0.98366000  0.06679000  1
  C  C688  1  0.17172000  0.60150000  0.51382000  1
  C  C689  1  0.17172000  0.89850000  0.01382000  1
  C  C690  1  0.17310000  0.56994000  0.51146000  1
  C  C691  1  0.17310000  0.93006000  0.01146000  1
  C  C692  1  0.17520000  0.50289000  0.73724000  1
  C  C693  1  0.17520000  0.99711000  0.23724000  1
  C  C694  1  0.17814000  0.03706000  0.01474000  1
  C  C695  1  0.17814000  0.46294000  0.51474000  1
  C  C696  1  0.17936000  0.00927000  0.20932000  1
  C  C697  1  0.17936000  0.49073000  0.70932000  1
  C  C698  1  0.17943000  0.73113000  0.50645000  1
  C  C699  1  0.17943000  0.76887000  0.00645000  1
  C  C700  1  0.18015000  0.71300000  0.53122000  1
  C  C701  1  0.18015000  0.78700000  0.03122000  1
  C  C702  1  0.18062000  0.06878000  0.01459000  1
  C  C703  1  0.18062000  0.43122000  0.51459000  1
  C  C704  1  0.18218000  0.51412000  0.46036000  1
  C  C705  1  0.18218000  0.98588000  0.96036000  1
  C  C706  1  0.18603000  0.51598000  0.42879000  1
  C  C707  1  0.18603000  0.98402000  0.92879000  1
  C  C708  1  0.18816000  0.12927000  0.00782000  1
  C  C709  1  0.18816000  0.37073000  0.50782000  1
  C  C710  1  0.19142000  0.52823000  0.36901000  1
  C  C711  1  0.19142000  0.97177000  0.86901000  1
  C  C712  1  0.19148000  0.50979000  0.64591000  1
  C  C713  1  0.19148000  0.99021000  0.14591000  1
  C  C714  1  0.19238000  0.51575000  0.61572000  1
  C  C715  1  0.19238000  0.98425000  0.11572000  1
  C  C716  1  0.19461000  0.64788000  0.52907000  1
  C  C717  1  0.19461000  0.85212000  0.02907000  1
  C  C718  1  0.19571000  0.00208000  0.25950000  1
  C  C719  1  0.19571000  0.49792000  0.75950000  1
  C  C720  1  0.19686000  0.61802000  0.52197000  1
  C  C721  1  0.19686000  0.88198000  0.02197000  1
  C  C722  1  0.20073000  0.74719000  0.00259000  1
  C  C723  1  0.20073000  0.75281000  0.50259000  1
  C  C724  1  0.20164000  0.71739000  0.55267000  1
  C  C725  1  0.20164000  0.78261000  0.05267000  1
  C  C726  1  0.20402000  0.02685000  0.20405000  1
  C  C727  1  0.20402000  0.47315000  0.70405000  1
  C  C728  1  0.20405000  0.20402000  0.02685000  1
  C  C729  1  0.20405000  0.29598000  0.52685000  1
  C  C730  1  0.20837000  0.08205000  0.01958000  1
  C  C731  1  0.20837000  0.41795000  0.51958000  1
  C  C732  1  0.20932000  0.17936000  0.00927000  1
  C  C733  1  0.20932000  0.32064000  0.50927000  1
  C  C734  1  0.21224000  0.11246000  0.01645000  1
  C  C735  1  0.21224000  0.38754000  0.51645000  1
  C  C736  1  0.21300000  0.53122000  0.31985000  1
  C  C737  1  0.21300000  0.96878000  0.81985000  1
  C  C738  1  0.21358000  0.52394000  0.41652000  1
  C  C739  1  0.21358000  0.97606000  0.91652000  1
  C  C740  1  0.21644000  0.52999000  0.38647000  1
  C  C741  1  0.21644000  0.97001000  0.88647000  1
  C  C742  1  0.21739000  0.55267000  0.29836000  1
  C  C743  1  0.21739000  0.94733000  0.79836000  1
  C  C744  1  0.22094000  0.01907000  0.25409000  1
  C  C745  1  0.22094000  0.48093000  0.75409000  1
  C  C746  1  0.22272000  0.73934000  0.54910000  1
  C  C747  1  0.22272000  0.76066000  0.04910000  1
  C  C748  1  0.22293000  0.74308000  0.02367000  1
  C  C749  1  0.22293000  0.75692000  0.52367000  1
  C  C750  1  0.22472000  0.03152000  0.22609000  1
  C  C751  1  0.22472000  0.46848000  0.72609000  1
  C  C752  1  0.22609000  0.22472000  0.03152000  1
  C  C753  1  0.22609000  0.27528000  0.53152000  1
  C  C754  1  0.23113000  0.50645000  0.32057000  1
  C  C755  1  0.23113000  0.99355000  0.82057000  1
  C  C756  1  0.23724000  0.17520000  0.99711000  1
  C  C757  1  0.23724000  0.32480000  0.49711000  1
  C  C758  1  0.23934000  0.54910000  0.27728000  1
  C  C759  1  0.23934000  0.95090000  0.77728000  1
  C  C760  1  0.24050000  0.69571000  0.00208000  1
  C  C761  1  0.24050000  0.80429000  0.50208000  1
  C  C762  1  0.24308000  0.02367000  0.27707000  1
  C  C763  1  0.24308000  0.47633000  0.77707000  1
  C  C764  1  0.24591000  0.72094000  0.01907000  1
  C  C765  1  0.24591000  0.77906000  0.51907000  1
  C  C766  1  0.24719000  0.00259000  0.29927000  1
  C  C767  1  0.24719000  0.49741000  0.79927000  1
  C  C768  1  0.25281000  0.50259000  0.29927000  1
  C  C769  1  0.25281000  0.99741000  0.79927000  1
  C  C770  1  0.25409000  0.22094000  0.01907000  1
  C  C771  1  0.25409000  0.27906000  0.51907000  1
  C  C772  1  0.25692000  0.52367000  0.27707000  1
  C  C773  1  0.25692000  0.97633000  0.77707000  1
  C  C774  1  0.25950000  0.19571000  0.00208000  1
  C  C775  1  0.25950000  0.30429000  0.50208000  1
  C  C776  1  0.26066000  0.04910000  0.27728000  1
  C  C777  1  0.26066000  0.45090000  0.77728000  1
  C  C778  1  0.26276000  0.67520000  0.99711000  1
  C  C779  1  0.26276000  0.82480000  0.49711000  1
  C  C780  1  0.26887000  0.00645000  0.32057000  1
  C  C781  1  0.26887000  0.49355000  0.82057000  1
  C  C782  1  0.27391000  0.72472000  0.03152000  1
  C  C783  1  0.27391000  0.77528000  0.53152000  1
  C  C784  1  0.27528000  0.53152000  0.22609000  1
  C  C785  1  0.27528000  0.96848000  0.72609000  1
  C  C786  1  0.27707000  0.24308000  0.02367000  1
  C  C787  1  0.27707000  0.25692000  0.52367000  1
  C  C788  1  0.27728000  0.23934000  0.54910000  1
  C  C789  1  0.27728000  0.26066000  0.04910000  1
  C  C790  1  0.27906000  0.51907000  0.25409000  1
  C  C791  1  0.27906000  0.98093000  0.75409000  1
  C  C792  1  0.28261000  0.05267000  0.29836000  1
  C  C793  1  0.28261000  0.44733000  0.79836000  1
  C  C794  1  0.28356000  0.02999000  0.38647000  1
  C  C795  1  0.28356000  0.47001000  0.88647000  1
  C  C796  1  0.28642000  0.02394000  0.41652000  1
  C  C797  1  0.28642000  0.47606000  0.91652000  1
  C  C798  1  0.28700000  0.03122000  0.31985000  1
  C  C799  1  0.28700000  0.46878000  0.81985000  1
  C  C800  1  0.28776000  0.61246000  0.01645000  1
  C  C801  1  0.28776000  0.88754000  0.51645000  1
  C  C802  1  0.29068000  0.67936000  0.00927000  1
  C  C803  1  0.29068000  0.82064000  0.50927000  1
  C  C804  1  0.29163000  0.58205000  0.01958000  1
  C  C805  1  0.29163000  0.91795000  0.51958000  1
  C  C806  1  0.29595000  0.70402000  0.02685000  1
  C  C807  1  0.29595000  0.79598000  0.52685000  1
  C  C808  1  0.29598000  0.52685000  0.20405000  1
  C  C809  1  0.29598000  0.97315000  0.70405000  1
  C  C810  1  0.29836000  0.21739000  0.55267000  1
  C  C811  1  0.29836000  0.28261000  0.05267000  1
  C  C812  1  0.29927000  0.24719000  0.00259000  1
  C  C813  1  0.29927000  0.25281000  0.50259000  1
  C  C814  1  0.30314000  0.11802000  0.52197000  1
  C  C815  1  0.30314000  0.38198000  0.02197000  1
  C  C816  1  0.30429000  0.50208000  0.25950000  1
  C  C817  1  0.30429000  0.99792000  0.75950000  1
  C  C818  1  0.30539000  0.14788000  0.52907000  1
  C  C819  1  0.30539000  0.35212000  0.02907000  1
  C  C820  1  0.30762000  0.01575000  0.61572000  1
  C  C821  1  0.30762000  0.48425000  0.11572000  1
  C  C822  1  0.30852000  0.00979000  0.64591000  1
  C  C823  1  0.30852000  0.49021000  0.14591000  1
  C  C824  1  0.30858000  0.02823000  0.36901000  1
  C  C825  1  0.30858000  0.47177000  0.86901000  1
  C  C826  1  0.31184000  0.62927000  0.00782000  1
  C  C827  1  0.31184000  0.87073000  0.50782000  1
  C  C828  1  0.31397000  0.01598000  0.42879000  1
  C  C829  1  0.31397000  0.48402000  0.92879000  1
  C  C830  1  0.31782000  0.01412000  0.46036000  1
  C  C831  1  0.31782000  0.48588000  0.96036000  1
  C  C832  1  0.31938000  0.56878000  0.01459000  1
  C  C833  1  0.31938000  0.93122000  0.51459000  1
  C  C834  1  0.31985000  0.21300000  0.53122000  1
  C  C835  1  0.31985000  0.28700000  0.03122000  1
  C  C836  1  0.32057000  0.23113000  0.50645000  1
  C  C837  1  0.32057000  0.26887000  0.00645000  1
  C  C838  1  0.32064000  0.50927000  0.20932000  1
  C  C839  1  0.32064000  0.99073000  0.70932000  1
  C  C840  1  0.32186000  0.53706000  0.01474000  1
  C  C841  1  0.32186000  0.96294000  0.51474000  1
  C  C842  1  0.32480000  0.00289000  0.73724000  1
  C  C843  1  0.32480000  0.49711000  0.23724000  1
  C  C844  1  0.32690000  0.06994000  0.51146000  1
  C  C845  1  0.32690000  0.43006000  0.01146000  1
  C  C846  1  0.32828000  0.10150000  0.51382000  1
  C  C847  1  0.32828000  0.39850000  0.01382000  1
  C  C848  1  0.33056000  0.01634000  0.56679000  1
  C  C849  1  0.33056000  0.48366000  0.06679000  1
  C  C850  1  0.33307000  0.16083000  0.52830000  1
  C  C851  1  0.33307000  0.33917000  0.02830000  1
  C  C852  1  0.33356000  0.01521000  0.59846000  1
  C  C853  1  0.33356000  0.48479000  0.09846000  1
  C  C854  1  0.33548000  0.02075000  0.38075000  1
  C  C855  1  0.33548000  0.47925000  0.88075000  1
  C  C856  1  0.33561000  0.00321000  0.65856000  1
  C  C857  1  0.33561000  0.49679000  0.15856000  1
  C  C858  1  0.33893000  0.61651000  0.00327000  1
  C  C859  1  0.33893000  0.88349000  0.50327000  1
  C  C860  1  0.33897000  0.01428000  0.41045000  1
  C  C861  1  0.33897000  0.48572000  0.91045000  1
  C  C862  1  0.33917000  0.02830000  0.33307000  1
  C  C863  1  0.33917000  0.47170000  0.83307000  1
  C  C864  1  0.34144000  0.66439000  0.99679000  1
  C  C865  1  0.34144000  0.83561000  0.49679000  1
  C  C866  1  0.34354000  0.58647000  0.00650000  1
  C  C867  1  0.34354000  0.91353000  0.50650000  1
  C  C868  1  0.35212000  0.02907000  0.30539000  1
  C  C869  1  0.35212000  0.47093000  0.80539000  1
  C  C870  1  0.35409000  0.69148000  0.99021000  1
  C  C871  1  0.35409000  0.80852000  0.49021000  1
  C  C872  1  0.35508000  0.02065000  0.35766000  1
  C  C873  1  0.35508000  0.47935000  0.85766000  1
  C  C874  1  0.35612000  0.11527000  0.51324000  1
  C  C875  1  0.35612000  0.38473000  0.01324000  1
  C  C876  1  0.35766000  0.14492000  0.52065000  1
  C  C877  1  0.35766000  0.35508000  0.02065000  1
  C  C878  1  0.35789000  0.63900000  0.99632000  1
  C  C879  1  0.35789000  0.86100000  0.49632000  1
  C  C880  1  0.36085000  0.00942000  0.61207000  1
  C  C881  1  0.36085000  0.49058000  0.11207000  1
  C  C882  1  0.36100000  0.00368000  0.64211000  1
  C  C883  1  0.36100000  0.49632000  0.14211000  1
  C  C884  1  0.36901000  0.19142000  0.52823000  1
  C  C885  1  0.36901000  0.30858000  0.02823000  1
  C  C886  1  0.37073000  0.50782000  0.18816000  1
  C  C887  1  0.37073000  0.99218000  0.68816000  1
  C  C888  1  0.38075000  0.16452000  0.52075000  1
  C  C889  1  0.38075000  0.33548000  0.02075000  1
  C  C890  1  0.38198000  0.02197000  0.30314000  1
  C  C891  1  0.38198000  0.47803000  0.80314000  1
  C  C892  1  0.38349000  0.50327000  0.16107000  1
  C  C893  1  0.38349000  0.99673000  0.66107000  1
  C  C894  1  0.38428000  0.69238000  0.98425000  1
  C  C895  1  0.38428000  0.80762000  0.48425000  1
  C  C896  1  0.38473000  0.01324000  0.35612000  1
  C  C897  1  0.38473000  0.48676000  0.85612000  1
  C  C898  1  0.38647000  0.21644000  0.52999000  1
  C  C899  1  0.38647000  0.28356000  0.02999000  1
  C  C900  1  0.38754000  0.51645000  0.21224000  1
  C  C901  1  0.38754000  0.98355000  0.71224000  1
  C  C902  1  0.38793000  0.63915000  0.99058000  1
  C  C903  1  0.38793000  0.86085000  0.49058000  1
  C  C904  1  0.39850000  0.01382000  0.32828000  1
  C  C905  1  0.39850000  0.48618000  0.82828000  1
  C  C906  1  0.40154000  0.66644000  0.98479000  1
  C  C907  1  0.40154000  0.83356000  0.48479000  1
  C  C908  1  0.41045000  0.16103000  0.51428000  1
  C  C909  1  0.41045000  0.33897000  0.01428000  1
  C  C910  1  0.41353000  0.50650000  0.15646000  1
  C  C911  1  0.41353000  0.99350000  0.65646000  1
  C  C912  1  0.41652000  0.21358000  0.52394000  1
  C  C913  1  0.41652000  0.28642000  0.02394000  1
  C  C914  1  0.41795000  0.51958000  0.20837000  1
  C  C915  1  0.41795000  0.98042000  0.70837000  1
  C  C916  1  0.42879000  0.18603000  0.51598000  1
  C  C917  1  0.42879000  0.31397000  0.01598000  1
  C  C918  1  0.43006000  0.01146000  0.32690000  1
  C  C919  1  0.43006000  0.48854000  0.82690000  1
  C  C920  1  0.43122000  0.51459000  0.18062000  1
  C  C921  1  0.43122000  0.98541000  0.68062000  1
  C  C922  1  0.43321000  0.66944000  0.98366000  1
  C  C923  1  0.43321000  0.83056000  0.48366000  1
  C  C924  1  0.44733000  0.70164000  0.78261000  1
  C  C925  1  0.44733000  0.79836000  0.28261000  1
  C  C926  1  0.45090000  0.72272000  0.76066000  1
  C  C927  1  0.45090000  0.77728000  0.26066000  1
  C  C928  1  0.46036000  0.18218000  0.51412000  1
  C  C929  1  0.46036000  0.31782000  0.01412000  1
  C  C930  1  0.46294000  0.51474000  0.17814000  1
  C  C931  1  0.46294000  0.98526000  0.67814000  1
  C  C932  1  0.46848000  0.72609000  0.22472000  1
  C  C933  1  0.46848000  0.77391000  0.72472000  1
  C  C934  1  0.46878000  0.68015000  0.78700000  1
  C  C935  1  0.46878000  0.81985000  0.28700000  1
  C  C936  1  0.47001000  0.61353000  0.78356000  1
  C  C937  1  0.47001000  0.88647000  0.28356000  1
  C  C938  1  0.47093000  0.69461000  0.85212000  1
  C  C939  1  0.47093000  0.80539000  0.35212000  1
  C  C940  1  0.47170000  0.66693000  0.83917000  1
  C  C941  1  0.47170000  0.83307000  0.33917000  1
  C  C942  1  0.47177000  0.63099000  0.80858000  1
  C  C943  1  0.47177000  0.86901000  0.30858000  1
  C  C944  1  0.47315000  0.70405000  0.20402000  1
  C  C945  1  0.47315000  0.79595000  0.70402000  1
  C  C946  1  0.47606000  0.58348000  0.78642000  1
  C  C947  1  0.47606000  0.91652000  0.28642000  1
  C  C948  1  0.47633000  0.72293000  0.74308000  1
  C  C949  1  0.47633000  0.77707000  0.24308000  1
  C  C950  1  0.47803000  0.69686000  0.88198000  1
  C  C951  1  0.47803000  0.80314000  0.38198000  1
  C  C952  1  0.47925000  0.61925000  0.83548000  1
  C  C953  1  0.47925000  0.88075000  0.33548000  1
  C  C954  1  0.47935000  0.64234000  0.85508000  1
  C  C955  1  0.47935000  0.85766000  0.35508000  1
  C  C956  1  0.48042000  0.70837000  0.08205000  1
  C  C957  1  0.48042000  0.79163000  0.58205000  1
  C  C958  1  0.48093000  0.74591000  0.72094000  1
  C  C959  1  0.48093000  0.75409000  0.22094000  1
  C  C960  1  0.48355000  0.71224000  0.11246000  1
  C  C961  1  0.48355000  0.78776000  0.61246000  1
  C  C962  1  0.48366000  0.06679000  0.33056000  1
  C  C963  1  0.48366000  0.43321000  0.83056000  1
  C  C964  1  0.48402000  0.57121000  0.81397000  1
  C  C965  1  0.48402000  0.92879000  0.31397000  1
  C  C966  1  0.48425000  0.11572000  0.30762000  1
  C  C967  1  0.48425000  0.38428000  0.80762000  1
  C  C968  1  0.48479000  0.09846000  0.33356000  1
  C  C969  1  0.48479000  0.40154000  0.83356000  1
  C  C970  1  0.48526000  0.67814000  0.03706000  1
  C  C971  1  0.48526000  0.82186000  0.53706000  1
  C  C972  1  0.48541000  0.68062000  0.06878000  1
  C  C973  1  0.48541000  0.81938000  0.56878000  1
  C  C974  1  0.48572000  0.58955000  0.83897000  1
  C  C975  1  0.48572000  0.91045000  0.33897000  1
  C  C976  1  0.48588000  0.53964000  0.81782000  1
  C  C977  1  0.48588000  0.96036000  0.31782000  1
  C  C978  1  0.48618000  0.67172000  0.89850000  1
  C  C979  1  0.48618000  0.82828000  0.39850000  1
  C  C980  1  0.48676000  0.64388000  0.88473000  1
  C  C981  1  0.48676000  0.85612000  0.38473000  1
  C  C982  1  0.48854000  0.67310000  0.93006000  1
  C  C983  1  0.48854000  0.82690000  0.43006000  1
  C  C984  1  0.49021000  0.14591000  0.30852000  1
  C  C985  1  0.49021000  0.35409000  0.80852000  1
  C  C986  1  0.49058000  0.11207000  0.36085000  1
  C  C987  1  0.49058000  0.38793000  0.86085000  1
  C  C988  1  0.49073000  0.70932000  0.17936000  1
  C  C989  1  0.49073000  0.79068000  0.67936000  1
  C  C990  1  0.49218000  0.68816000  0.12927000  1
  C  C991  1  0.49218000  0.81184000  0.62927000  1
  C  C992  1  0.49350000  0.65646000  0.08647000  1
  C  C993  1  0.49350000  0.84354000  0.58647000  1
  C  C994  1  0.49355000  0.67943000  0.76887000  1
  C  C995  1  0.49355000  0.82057000  0.26887000  1
  C  C996  1  0.49632000  0.14211000  0.36100000  1
  C  C997  1  0.49632000  0.35789000  0.86100000  1
  C  C998  1  0.49673000  0.66107000  0.11651000  1
  C  C999  1  0.49673000  0.83893000  0.61651000  1
  C  C1000  1  0.49679000  0.15856000  0.33561000  1
  C  C1001  1  0.49679000  0.34144000  0.83561000  1
  C  C1002  1  0.49711000  0.23724000  0.32480000  1
  C  C1003  1  0.49711000  0.26276000  0.82480000  1
  C  C1004  1  0.49741000  0.70073000  0.74719000  1
  C  C1005  1  0.49741000  0.79927000  0.24719000  1
  C  C1006  1  0.49792000  0.74050000  0.69571000  1
  C  C1007  1  0.49792000  0.75950000  0.19571000  1
  C  C1008  1  0.50208000  0.24050000  0.80429000  1
  C  C1009  1  0.50208000  0.25950000  0.30429000  1
  C  C1010  1  0.50259000  0.20073000  0.75281000  1
  C  C1011  1  0.50259000  0.29927000  0.25281000  1
  C  C1012  1  0.50289000  0.73724000  0.17520000  1
  C  C1013  1  0.50289000  0.76276000  0.67520000  1
  C  C1014  1  0.50321000  0.65856000  0.16439000  1
  C  C1015  1  0.50321000  0.84144000  0.66439000  1
  C  C1016  1  0.50327000  0.16107000  0.38349000  1
  C  C1017  1  0.50327000  0.33893000  0.88349000  1
  C  C1018  1  0.50368000  0.64211000  0.13900000  1
  C  C1019  1  0.50368000  0.85789000  0.63900000  1
  C  C1020  1  0.50645000  0.17943000  0.73113000  1
  C  C1021  1  0.50645000  0.32057000  0.23113000  1
  C  C1022  1  0.50650000  0.15646000  0.41353000  1
  C  C1023  1  0.50650000  0.34354000  0.91353000  1
  C  C1024  1  0.50782000  0.18816000  0.37073000  1
  C  C1025  1  0.50782000  0.31184000  0.87073000  1
  C  C1026  1  0.50927000  0.20932000  0.32064000  1
  C  C1027  1  0.50927000  0.29068000  0.82064000  1
  C  C1028  1  0.50942000  0.61207000  0.13915000  1
  C  C1029  1  0.50942000  0.88793000  0.63915000  1
  C  C1030  1  0.50979000  0.64591000  0.19148000  1
  C  C1031  1  0.50979000  0.85409000  0.69148000  1
  C  C1032  1  0.51146000  0.17310000  0.56994000  1
  C  C1033  1  0.51146000  0.32690000  0.06994000  1
  C  C1034  1  0.51324000  0.14388000  0.61527000  1
  C  C1035  1  0.51324000  0.35612000  0.11527000  1
  C  C1036  1  0.51382000  0.17172000  0.60150000  1
  C  C1037  1  0.51382000  0.32828000  0.10150000  1
  C  C1038  1  0.51412000  0.03964000  0.68218000  1
  C  C1039  1  0.51412000  0.46036000  0.18218000  1
  C  C1040  1  0.51428000  0.08955000  0.66103000  1
  C  C1041  1  0.51428000  0.41045000  0.16103000  1
  C  C1042  1  0.51459000  0.18062000  0.43122000  1
  C  C1043  1  0.51459000  0.31938000  0.93122000  1
  C  C1044  1  0.51474000  0.17814000  0.46294000  1
  C  C1045  1  0.51474000  0.32186000  0.96294000  1
  C  C1046  1  0.51521000  0.59846000  0.16644000  1
  C  C1047  1  0.51521000  0.90154000  0.66644000  1
  C  C1048  1  0.51575000  0.61572000  0.19238000  1
  C  C1049  1  0.51575000  0.88428000  0.69238000  1
  C  C1050  1  0.51598000  0.07121000  0.68603000  1
  C  C1051  1  0.51598000  0.42879000  0.18603000  1
  C  C1052  1  0.51634000  0.56679000  0.16944000  1
  C  C1053  1  0.51634000  0.93321000  0.66944000  1
  C  C1054  1  0.51645000  0.21224000  0.38754000  1
  C  C1055  1  0.51645000  0.28776000  0.88754000  1
  C  C1056  1  0.51907000  0.24591000  0.77906000  1
  C  C1057  1  0.51907000  0.25409000  0.27906000  1
  C  C1058  1  0.51958000  0.20837000  0.41795000  1
  C  C1059  1  0.51958000  0.29163000  0.91795000  1
  C  C1060  1  0.52065000  0.14234000  0.64492000  1
  C  C1061  1  0.52065000  0.35766000  0.14492000  1
  C  C1062  1  0.52075000  0.11925000  0.66452000  1
  C  C1063  1  0.52075000  0.38075000  0.16452000  1
  C  C1064  1  0.52197000  0.19686000  0.61802000  1
  C  C1065  1  0.52197000  0.30314000  0.11802000  1
  C  C1066  1  0.52367000  0.22293000  0.75692000  1
  C  C1067  1  0.52367000  0.27707000  0.25692000  1
  C  C1068  1  0.52394000  0.08348000  0.71358000  1
  C  C1069  1  0.52394000  0.41652000  0.21358000  1
  C  C1070  1  0.52685000  0.20405000  0.29598000  1
  C  C1071  1  0.52685000  0.29595000  0.79598000  1
  C  C1072  1  0.52823000  0.13099000  0.69142000  1
  C  C1073  1  0.52823000  0.36901000  0.19142000  1
  C  C1074  1  0.52830000  0.16693000  0.66083000  1
  C  C1075  1  0.52830000  0.33307000  0.16083000  1
  C  C1076  1  0.52907000  0.19461000  0.64788000  1
  C  C1077  1  0.52907000  0.30539000  0.14788000  1
  C  C1078  1  0.52999000  0.11353000  0.71644000  1
  C  C1079  1  0.52999000  0.38647000  0.21644000  1
  C  C1080  1  0.53122000  0.18015000  0.71300000  1
  C  C1081  1  0.53122000  0.31985000  0.21300000  1
  C  C1082  1  0.53152000  0.22609000  0.27528000  1
  C  C1083  1  0.53152000  0.27391000  0.77528000  1
  C  C1084  1  0.53706000  0.01474000  0.32186000  1
  C  C1085  1  0.53706000  0.48526000  0.82186000  1
  C  C1086  1  0.53964000  0.68218000  0.98588000  1
  C  C1087  1  0.53964000  0.81782000  0.48588000  1
  C  C1088  1  0.54910000  0.22272000  0.73934000  1
  C  C1089  1  0.54910000  0.27728000  0.23934000  1
  C  C1090  1  0.55267000  0.20164000  0.71739000  1
  C  C1091  1  0.55267000  0.29836000  0.21739000  1
  C  C1092  1  0.56679000  0.16944000  0.51634000  1
  C  C1093  1  0.56679000  0.33056000  0.01634000  1
  C  C1094  1  0.56878000  0.01459000  0.31938000  1
  C  C1095  1  0.56878000  0.48541000  0.81938000  1
  C  C1096  1  0.56994000  0.51146000  0.17310000  1
  C  C1097  1  0.56994000  0.98854000  0.67310000  1
  C  C1098  1  0.57121000  0.68603000  0.98402000  1
  C  C1099  1  0.57121000  0.81397000  0.48402000  1
  C  C1100  1  0.58205000  0.01958000  0.29163000  1
  C  C1101  1  0.58205000  0.48042000  0.79163000  1
  C  C1102  1  0.58348000  0.71358000  0.97606000  1
  C  C1103  1  0.58348000  0.78642000  0.47606000  1
  C  C1104  1  0.58647000  0.00650000  0.34354000  1
  C  C1105  1  0.58647000  0.49350000  0.84354000  1
  C  C1106  1  0.58955000  0.66103000  0.98572000  1
  C  C1107  1  0.58955000  0.83897000  0.48572000  1
  C  C1108  1  0.59846000  0.16644000  0.51521000  1
  C  C1109  1  0.59846000  0.33356000  0.01521000  1
  C  C1110  1  0.60150000  0.51382000  0.17172000  1
  C  C1111  1  0.60150000  0.98618000  0.67172000  1
  C  C1112  1  0.61207000  0.13915000  0.50942000  1
  C  C1113  1  0.61207000  0.36085000  0.00942000  1
  C  C1114  1  0.61246000  0.01645000  0.28776000  1
  C  C1115  1  0.61246000  0.48355000  0.78776000  1
  C  C1116  1  0.61353000  0.71644000  0.97001000  1
  C  C1117  1  0.61353000  0.78356000  0.47001000  1
  C  C1118  1  0.61527000  0.51324000  0.14388000  1
  C  C1119  1  0.61527000  0.98676000  0.64388000  1
  C  C1120  1  0.61572000  0.19238000  0.51575000  1
  C  C1121  1  0.61572000  0.30762000  0.01575000  1
  C  C1122  1  0.61651000  0.00327000  0.33893000  1
  C  C1123  1  0.61651000  0.49673000  0.83893000  1
  C  C1124  1  0.61802000  0.52197000  0.19686000  1
  C  C1125  1  0.61802000  0.97803000  0.69686000  1
  C  C1126  1  0.61925000  0.66452000  0.97925000  1
  C  C1127  1  0.61925000  0.83548000  0.47925000  1
  C  C1128  1  0.62927000  0.00782000  0.31184000  1
  C  C1129  1  0.62927000  0.49218000  0.81184000  1
  C  C1130  1  0.63099000  0.69142000  0.97177000  1
  C  C1131  1  0.63099000  0.80858000  0.47177000  1
  C  C1132  1  0.63900000  0.50368000  0.85789000  1
  C  C1133  1  0.63900000  0.99632000  0.35789000  1
  C  C1134  1  0.63915000  0.50942000  0.88793000  1
  C  C1135  1  0.63915000  0.99058000  0.38793000  1
  C  C1136  1  0.64211000  0.13900000  0.50368000  1
  C  C1137  1  0.64211000  0.36100000  0.00368000  1
  C  C1138  1  0.64234000  0.64492000  0.97935000  1
  C  C1139  1  0.64234000  0.85508000  0.47935000  1
  C  C1140  1  0.64388000  0.61527000  0.98676000  1
  C  C1141  1  0.64388000  0.88473000  0.48676000  1
  C  C1142  1  0.64492000  0.52065000  0.14234000  1
  C  C1143  1  0.64492000  0.97935000  0.64234000  1
  C  C1144  1  0.64591000  0.19148000  0.50979000  1
  C  C1145  1  0.64591000  0.30852000  0.00979000  1
  C  C1146  1  0.64788000  0.52907000  0.19461000  1
  C  C1147  1  0.64788000  0.97093000  0.69461000  1
  C  C1148  1  0.65646000  0.08647000  0.49350000  1
  C  C1149  1  0.65646000  0.41353000  0.99350000  1
  C  C1150  1  0.65856000  0.16439000  0.50321000  1
  C  C1151  1  0.65856000  0.33561000  0.00321000  1
  C  C1152  1  0.66083000  0.52830000  0.16693000  1
  C  C1153  1  0.66083000  0.97170000  0.66693000  1
  C  C1154  1  0.66103000  0.51428000  0.08955000  1
  C  C1155  1  0.66103000  0.98572000  0.58955000  1
  C  C1156  1  0.66107000  0.11651000  0.49673000  1
  C  C1157  1  0.66107000  0.38349000  0.99673000  1
  C  C1158  1  0.66439000  0.50321000  0.84144000  1
  C  C1159  1  0.66439000  0.99679000  0.34144000  1
  C  C1160  1  0.66452000  0.52075000  0.11925000  1
  C  C1161  1  0.66452000  0.97925000  0.61925000  1
  C  C1162  1  0.66644000  0.51521000  0.90154000  1
  C  C1163  1  0.66644000  0.98479000  0.40154000  1
  C  C1164  1  0.66693000  0.66083000  0.97170000  1
  C  C1165  1  0.66693000  0.83917000  0.47170000  1
  C  C1166  1  0.66944000  0.51634000  0.93321000  1
  C  C1167  1  0.66944000  0.98366000  0.43321000  1
  C  C1168  1  0.67172000  0.60150000  0.98618000  1
  C  C1169  1  0.67172000  0.89850000  0.48618000  1
  C  C1170  1  0.67310000  0.56994000  0.98854000  1
  C  C1171  1  0.67310000  0.93006000  0.48854000  1
  C  C1172  1  0.67520000  0.50289000  0.76276000  1
  C  C1173  1  0.67520000  0.99711000  0.26276000  1
  C  C1174  1  0.67814000  0.03706000  0.48526000  1
  C  C1175  1  0.67814000  0.46294000  0.98526000  1
  C  C1176  1  0.67936000  0.00927000  0.29068000  1
  C  C1177  1  0.67936000  0.49073000  0.79068000  1
  C  C1178  1  0.67943000  0.73113000  0.99355000  1
  C  C1179  1  0.67943000  0.76887000  0.49355000  1
  C  C1180  1  0.68015000  0.71300000  0.96878000  1
  C  C1181  1  0.68015000  0.78700000  0.46878000  1
  C  C1182  1  0.68062000  0.06878000  0.48541000  1
  C  C1183  1  0.68062000  0.43122000  0.98541000  1
  C  C1184  1  0.68218000  0.51412000  0.03964000  1
  C  C1185  1  0.68218000  0.98588000  0.53964000  1
  C  C1186  1  0.68603000  0.51598000  0.07121000  1
  C  C1187  1  0.68603000  0.98402000  0.57121000  1
  C  C1188  1  0.68816000  0.12927000  0.49218000  1
  C  C1189  1  0.68816000  0.37073000  0.99218000  1
  C  C1190  1  0.69142000  0.52823000  0.13099000  1
  C  C1191  1  0.69142000  0.97177000  0.63099000  1
  C  C1192  1  0.69148000  0.50979000  0.85409000  1
  C  C1193  1  0.69148000  0.99021000  0.35409000  1
  C  C1194  1  0.69238000  0.51575000  0.88428000  1
  C  C1195  1  0.69238000  0.98425000  0.38428000  1
  C  C1196  1  0.69461000  0.64788000  0.97093000  1
  C  C1197  1  0.69461000  0.85212000  0.47093000  1
  C  C1198  1  0.69571000  0.00208000  0.24050000  1
  C  C1199  1  0.69571000  0.49792000  0.74050000  1
  C  C1200  1  0.69686000  0.61802000  0.97803000  1
  C  C1201  1  0.69686000  0.88198000  0.47803000  1
  C  C1202  1  0.70073000  0.74719000  0.49741000  1
  C  C1203  1  0.70073000  0.75281000  0.99741000  1
  C  C1204  1  0.70164000  0.71739000  0.94733000  1
  C  C1205  1  0.70164000  0.78261000  0.44733000  1
  C  C1206  1  0.70402000  0.02685000  0.29595000  1
  C  C1207  1  0.70402000  0.47315000  0.79595000  1
  C  C1208  1  0.70405000  0.20402000  0.47315000  1
  C  C1209  1  0.70405000  0.29598000  0.97315000  1
  C  C1210  1  0.70837000  0.08205000  0.48042000  1
  C  C1211  1  0.70837000  0.41795000  0.98042000  1
  C  C1212  1  0.70932000  0.17936000  0.49073000  1
  C  C1213  1  0.70932000  0.32064000  0.99073000  1
  C  C1214  1  0.71224000  0.11246000  0.48355000  1
  C  C1215  1  0.71224000  0.38754000  0.98355000  1
  C  C1216  1  0.71300000  0.53122000  0.18015000  1
  C  C1217  1  0.71300000  0.96878000  0.68015000  1
  C  C1218  1  0.71358000  0.52394000  0.08348000  1
  C  C1219  1  0.71358000  0.97606000  0.58348000  1
  C  C1220  1  0.71644000  0.52999000  0.11353000  1
  C  C1221  1  0.71644000  0.97001000  0.61353000  1
  C  C1222  1  0.71739000  0.55267000  0.20164000  1
  C  C1223  1  0.71739000  0.94733000  0.70164000  1
  C  C1224  1  0.72094000  0.01907000  0.24591000  1
  C  C1225  1  0.72094000  0.48093000  0.74591000  1
  C  C1226  1  0.72272000  0.73934000  0.95090000  1
  C  C1227  1  0.72272000  0.76066000  0.45090000  1
  C  C1228  1  0.72293000  0.74308000  0.47633000  1
  C  C1229  1  0.72293000  0.75692000  0.97633000  1
  C  C1230  1  0.72472000  0.03152000  0.27391000  1
  C  C1231  1  0.72472000  0.46848000  0.77391000  1
  C  C1232  1  0.72609000  0.22472000  0.46848000  1
  C  C1233  1  0.72609000  0.27528000  0.96848000  1
  C  C1234  1  0.73113000  0.50645000  0.17943000  1
  C  C1235  1  0.73113000  0.99355000  0.67943000  1
  C  C1236  1  0.73724000  0.17520000  0.50289000  1
  C  C1237  1  0.73724000  0.32480000  0.00289000  1
  C  C1238  1  0.73934000  0.54910000  0.22272000  1
  C  C1239  1  0.73934000  0.95090000  0.72272000  1
  C  C1240  1  0.74050000  0.69571000  0.49792000  1
  C  C1241  1  0.74050000  0.80429000  0.99792000  1
  C  C1242  1  0.74308000  0.02367000  0.22293000  1
  C  C1243  1  0.74308000  0.47633000  0.72293000  1
  C  C1244  1  0.74591000  0.72094000  0.48093000  1
  C  C1245  1  0.74591000  0.77906000  0.98093000  1
  C  C1246  1  0.74719000  0.00259000  0.20073000  1
  C  C1247  1  0.74719000  0.49741000  0.70073000  1
  C  C1248  1  0.75281000  0.50259000  0.20073000  1
  C  C1249  1  0.75281000  0.99741000  0.70073000  1
  C  C1250  1  0.75409000  0.22094000  0.48093000  1
  C  C1251  1  0.75409000  0.27906000  0.98093000  1
  C  C1252  1  0.75692000  0.52367000  0.22293000  1
  C  C1253  1  0.75692000  0.97633000  0.72293000  1
  C  C1254  1  0.75950000  0.19571000  0.49792000  1
  C  C1255  1  0.75950000  0.30429000  0.99792000  1
  C  C1256  1  0.76066000  0.04910000  0.22272000  1
  C  C1257  1  0.76066000  0.45090000  0.72272000  1
  C  C1258  1  0.76276000  0.67520000  0.50289000  1
  C  C1259  1  0.76276000  0.82480000  0.00289000  1
  C  C1260  1  0.76887000  0.00645000  0.17943000  1
  C  C1261  1  0.76887000  0.49355000  0.67943000  1
  C  C1262  1  0.77391000  0.72472000  0.46848000  1
  C  C1263  1  0.77391000  0.77528000  0.96848000  1
  C  C1264  1  0.77528000  0.53152000  0.27391000  1
  C  C1265  1  0.77528000  0.96848000  0.77391000  1
  C  C1266  1  0.77707000  0.24308000  0.47633000  1
  C  C1267  1  0.77707000  0.25692000  0.97633000  1
  C  C1268  1  0.77728000  0.23934000  0.95090000  1
  C  C1269  1  0.77728000  0.26066000  0.45090000  1
  C  C1270  1  0.77906000  0.51907000  0.24591000  1
  C  C1271  1  0.77906000  0.98093000  0.74591000  1
  C  C1272  1  0.78261000  0.05267000  0.20164000  1
  C  C1273  1  0.78261000  0.44733000  0.70164000  1
  C  C1274  1  0.78356000  0.02999000  0.11353000  1
  C  C1275  1  0.78356000  0.47001000  0.61353000  1
  C  C1276  1  0.78642000  0.02394000  0.08348000  1
  C  C1277  1  0.78642000  0.47606000  0.58348000  1
  C  C1278  1  0.78700000  0.03122000  0.18015000  1
  C  C1279  1  0.78700000  0.46878000  0.68015000  1
  C  C1280  1  0.78776000  0.61246000  0.48355000  1
  C  C1281  1  0.78776000  0.88754000  0.98355000  1
  C  C1282  1  0.79068000  0.67936000  0.49073000  1
  C  C1283  1  0.79068000  0.82064000  0.99073000  1
  C  C1284  1  0.79163000  0.58205000  0.48042000  1
  C  C1285  1  0.79163000  0.91795000  0.98042000  1
  C  C1286  1  0.79595000  0.70402000  0.47315000  1
  C  C1287  1  0.79595000  0.79598000  0.97315000  1
  C  C1288  1  0.79598000  0.52685000  0.29595000  1
  C  C1289  1  0.79598000  0.97315000  0.79595000  1
  C  C1290  1  0.79836000  0.21739000  0.94733000  1
  C  C1291  1  0.79836000  0.28261000  0.44733000  1
  C  C1292  1  0.79927000  0.24719000  0.49741000  1
  C  C1293  1  0.79927000  0.25281000  0.99741000  1
  C  C1294  1  0.80314000  0.11802000  0.97803000  1
  C  C1295  1  0.80314000  0.38198000  0.47803000  1
  C  C1296  1  0.80429000  0.50208000  0.24050000  1
  C  C1297  1  0.80429000  0.99792000  0.74050000  1
  C  C1298  1  0.80539000  0.14788000  0.97093000  1
  C  C1299  1  0.80539000  0.35212000  0.47093000  1
  C  C1300  1  0.80762000  0.01575000  0.88428000  1
  C  C1301  1  0.80762000  0.48425000  0.38428000  1
  C  C1302  1  0.80852000  0.00979000  0.85409000  1
  C  C1303  1  0.80852000  0.49021000  0.35409000  1
  C  C1304  1  0.80858000  0.02823000  0.13099000  1
  C  C1305  1  0.80858000  0.47177000  0.63099000  1
  C  C1306  1  0.81184000  0.62927000  0.49218000  1
  C  C1307  1  0.81184000  0.87073000  0.99218000  1
  C  C1308  1  0.81397000  0.01598000  0.07121000  1
  C  C1309  1  0.81397000  0.48402000  0.57121000  1
  C  C1310  1  0.81782000  0.01412000  0.03964000  1
  C  C1311  1  0.81782000  0.48588000  0.53964000  1
  C  C1312  1  0.81938000  0.56878000  0.48541000  1
  C  C1313  1  0.81938000  0.93122000  0.98541000  1
  C  C1314  1  0.81985000  0.21300000  0.96878000  1
  C  C1315  1  0.81985000  0.28700000  0.46878000  1
  C  C1316  1  0.82057000  0.23113000  0.99355000  1
  C  C1317  1  0.82057000  0.26887000  0.49355000  1
  C  C1318  1  0.82064000  0.50927000  0.29068000  1
  C  C1319  1  0.82064000  0.99073000  0.79068000  1
  C  C1320  1  0.82186000  0.53706000  0.48526000  1
  C  C1321  1  0.82186000  0.96294000  0.98526000  1
  C  C1322  1  0.82480000  0.00289000  0.76276000  1
  C  C1323  1  0.82480000  0.49711000  0.26276000  1
  C  C1324  1  0.82690000  0.06994000  0.98854000  1
  C  C1325  1  0.82690000  0.43006000  0.48854000  1
  C  C1326  1  0.82828000  0.10150000  0.98618000  1
  C  C1327  1  0.82828000  0.39850000  0.48618000  1
  C  C1328  1  0.83056000  0.01634000  0.93321000  1
  C  C1329  1  0.83056000  0.48366000  0.43321000  1
  C  C1330  1  0.83307000  0.16083000  0.97170000  1
  C  C1331  1  0.83307000  0.33917000  0.47170000  1
  C  C1332  1  0.83356000  0.01521000  0.90154000  1
  C  C1333  1  0.83356000  0.48479000  0.40154000  1
  C  C1334  1  0.83548000  0.02075000  0.11925000  1
  C  C1335  1  0.83548000  0.47925000  0.61925000  1
  C  C1336  1  0.83561000  0.00321000  0.84144000  1
  C  C1337  1  0.83561000  0.49679000  0.34144000  1
  C  C1338  1  0.83893000  0.61651000  0.49673000  1
  C  C1339  1  0.83893000  0.88349000  0.99673000  1
  C  C1340  1  0.83897000  0.01428000  0.08955000  1
  C  C1341  1  0.83897000  0.48572000  0.58955000  1
  C  C1342  1  0.83917000  0.02830000  0.16693000  1
  C  C1343  1  0.83917000  0.47170000  0.66693000  1
  C  C1344  1  0.84144000  0.66439000  0.50321000  1
  C  C1345  1  0.84144000  0.83561000  0.00321000  1
  C  C1346  1  0.84354000  0.58647000  0.49350000  1
  C  C1347  1  0.84354000  0.91353000  0.99350000  1
  C  C1348  1  0.85212000  0.02907000  0.19461000  1
  C  C1349  1  0.85212000  0.47093000  0.69461000  1
  C  C1350  1  0.85409000  0.69148000  0.50979000  1
  C  C1351  1  0.85409000  0.80852000  0.00979000  1
  C  C1352  1  0.85508000  0.02065000  0.14234000  1
  C  C1353  1  0.85508000  0.47935000  0.64234000  1
  C  C1354  1  0.85612000  0.11527000  0.98676000  1
  C  C1355  1  0.85612000  0.38473000  0.48676000  1
  C  C1356  1  0.85766000  0.14492000  0.97935000  1
  C  C1357  1  0.85766000  0.35508000  0.47935000  1
  C  C1358  1  0.85789000  0.63900000  0.50368000  1
  C  C1359  1  0.85789000  0.86100000  0.00368000  1
  C  C1360  1  0.86085000  0.00942000  0.88793000  1
  C  C1361  1  0.86085000  0.49058000  0.38793000  1
  C  C1362  1  0.86100000  0.00368000  0.85789000  1
  C  C1363  1  0.86100000  0.49632000  0.35789000  1
  C  C1364  1  0.86901000  0.19142000  0.97177000  1
  C  C1365  1  0.86901000  0.30858000  0.47177000  1
  C  C1366  1  0.87073000  0.50782000  0.31184000  1
  C  C1367  1  0.87073000  0.99218000  0.81184000  1
  C  C1368  1  0.88075000  0.16452000  0.97925000  1
  C  C1369  1  0.88075000  0.33548000  0.47925000  1
  C  C1370  1  0.88198000  0.02197000  0.19686000  1
  C  C1371  1  0.88198000  0.47803000  0.69686000  1
  C  C1372  1  0.88349000  0.50327000  0.33893000  1
  C  C1373  1  0.88349000  0.99673000  0.83893000  1
  C  C1374  1  0.88428000  0.69238000  0.51575000  1
  C  C1375  1  0.88428000  0.80762000  0.01575000  1
  C  C1376  1  0.88473000  0.01324000  0.14388000  1
  C  C1377  1  0.88473000  0.48676000  0.64388000  1
  C  C1378  1  0.88647000  0.21644000  0.97001000  1
  C  C1379  1  0.88647000  0.28356000  0.47001000  1
  C  C1380  1  0.88754000  0.51645000  0.28776000  1
  C  C1381  1  0.88754000  0.98355000  0.78776000  1
  C  C1382  1  0.88793000  0.63915000  0.50942000  1
  C  C1383  1  0.88793000  0.86085000  0.00942000  1
  C  C1384  1  0.89850000  0.01382000  0.17172000  1
  C  C1385  1  0.89850000  0.48618000  0.67172000  1
  C  C1386  1  0.90154000  0.66644000  0.51521000  1
  C  C1387  1  0.90154000  0.83356000  0.01521000  1
  C  C1388  1  0.91045000  0.16103000  0.98572000  1
  C  C1389  1  0.91045000  0.33897000  0.48572000  1
  C  C1390  1  0.91353000  0.50650000  0.34354000  1
  C  C1391  1  0.91353000  0.99350000  0.84354000  1
  C  C1392  1  0.91652000  0.21358000  0.97606000  1
  C  C1393  1  0.91652000  0.28642000  0.47606000  1
  C  C1394  1  0.91795000  0.51958000  0.29163000  1
  C  C1395  1  0.91795000  0.98042000  0.79163000  1
  C  C1396  1  0.92879000  0.18603000  0.98402000  1
  C  C1397  1  0.92879000  0.31397000  0.48402000  1
  C  C1398  1  0.93006000  0.01146000  0.17310000  1
  C  C1399  1  0.93006000  0.48854000  0.67310000  1
  C  C1400  1  0.93122000  0.51459000  0.31938000  1
  C  C1401  1  0.93122000  0.98541000  0.81938000  1
  C  C1402  1  0.93321000  0.66944000  0.51634000  1
  C  C1403  1  0.93321000  0.83056000  0.01634000  1
  C  C1404  1  0.94733000  0.70164000  0.71739000  1
  C  C1405  1  0.94733000  0.79836000  0.21739000  1
  C  C1406  1  0.95090000  0.72272000  0.73934000  1
  C  C1407  1  0.95090000  0.77728000  0.23934000  1
  C  C1408  1  0.96036000  0.18218000  0.98588000  1
  C  C1409  1  0.96036000  0.31782000  0.48588000  1
  C  C1410  1  0.96294000  0.51474000  0.32186000  1
  C  C1411  1  0.96294000  0.98526000  0.82186000  1
  C  C1412  1  0.96848000  0.72609000  0.27528000  1
  C  C1413  1  0.96848000  0.77391000  0.77528000  1
  C  C1414  1  0.96878000  0.68015000  0.71300000  1
  C  C1415  1  0.96878000  0.81985000  0.21300000  1
  C  C1416  1  0.97001000  0.61353000  0.71644000  1
  C  C1417  1  0.97001000  0.88647000  0.21644000  1
  C  C1418  1  0.97093000  0.69461000  0.64788000  1
  C  C1419  1  0.97093000  0.80539000  0.14788000  1
  C  C1420  1  0.97170000  0.66693000  0.66083000  1
  C  C1421  1  0.97170000  0.83307000  0.16083000  1
  C  C1422  1  0.97177000  0.63099000  0.69142000  1
  C  C1423  1  0.97177000  0.86901000  0.19142000  1
  C  C1424  1  0.97315000  0.70405000  0.29598000  1
  C  C1425  1  0.97315000  0.79595000  0.79598000  1
  C  C1426  1  0.97606000  0.58348000  0.71358000  1
  C  C1427  1  0.97606000  0.91652000  0.21358000  1
  C  C1428  1  0.97633000  0.72293000  0.75692000  1
  C  C1429  1  0.97633000  0.77707000  0.25692000  1
  C  C1430  1  0.97803000  0.69686000  0.61802000  1
  C  C1431  1  0.97803000  0.80314000  0.11802000  1
  C  C1432  1  0.97925000  0.61925000  0.66452000  1
  C  C1433  1  0.97925000  0.88075000  0.16452000  1
  C  C1434  1  0.97935000  0.64234000  0.64492000  1
  C  C1435  1  0.97935000  0.85766000  0.14492000  1
  C  C1436  1  0.98042000  0.70837000  0.41795000  1
  C  C1437  1  0.98042000  0.79163000  0.91795000  1
  C  C1438  1  0.98093000  0.74591000  0.77906000  1
  C  C1439  1  0.98093000  0.75409000  0.27906000  1
  C  C1440  1  0.98355000  0.71224000  0.38754000  1
  C  C1441  1  0.98355000  0.78776000  0.88754000  1
  C  C1442  1  0.98366000  0.06679000  0.16944000  1
  C  C1443  1  0.98366000  0.43321000  0.66944000  1
  C  C1444  1  0.98402000  0.57121000  0.68603000  1
  C  C1445  1  0.98402000  0.92879000  0.18603000  1
  C  C1446  1  0.98425000  0.11572000  0.19238000  1
  C  C1447  1  0.98425000  0.38428000  0.69238000  1
  C  C1448  1  0.98479000  0.09846000  0.16644000  1
  C  C1449  1  0.98479000  0.40154000  0.66644000  1
  C  C1450  1  0.98526000  0.67814000  0.46294000  1
  C  C1451  1  0.98526000  0.82186000  0.96294000  1
  C  C1452  1  0.98541000  0.68062000  0.43122000  1
  C  C1453  1  0.98541000  0.81938000  0.93122000  1
  C  C1454  1  0.98572000  0.58955000  0.66103000  1
  C  C1455  1  0.98572000  0.91045000  0.16103000  1
  C  C1456  1  0.98588000  0.53964000  0.68218000  1
  C  C1457  1  0.98588000  0.96036000  0.18218000  1
  C  C1458  1  0.98618000  0.67172000  0.60150000  1
  C  C1459  1  0.98618000  0.82828000  0.10150000  1
  C  C1460  1  0.98676000  0.64388000  0.61527000  1
  C  C1461  1  0.98676000  0.85612000  0.11527000  1
  C  C1462  1  0.98854000  0.67310000  0.56994000  1
  C  C1463  1  0.98854000  0.82690000  0.06994000  1
  C  C1464  1  0.99021000  0.14591000  0.19148000  1
  C  C1465  1  0.99021000  0.35409000  0.69148000  1
  C  C1466  1  0.99058000  0.11207000  0.13915000  1
  C  C1467  1  0.99058000  0.38793000  0.63915000  1
  C  C1468  1  0.99073000  0.70932000  0.32064000  1
  C  C1469  1  0.99073000  0.79068000  0.82064000  1
  C  C1470  1  0.99218000  0.68816000  0.37073000  1
  C  C1471  1  0.99218000  0.81184000  0.87073000  1
  C  C1472  1  0.99350000  0.65646000  0.41353000  1
  C  C1473  1  0.99350000  0.84354000  0.91353000  1
  C  C1474  1  0.99355000  0.67943000  0.73113000  1
  C  C1475  1  0.99355000  0.82057000  0.23113000  1
  C  C1476  1  0.99632000  0.14211000  0.13900000  1
  C  C1477  1  0.99632000  0.35789000  0.63900000  1
  C  C1478  1  0.99673000  0.66107000  0.38349000  1
  C  C1479  1  0.99673000  0.83893000  0.88349000  1
  C  C1480  1  0.99679000  0.15856000  0.16439000  1
  C  C1481  1  0.99679000  0.34144000  0.66439000  1
  C  C1482  1  0.99711000  0.23724000  0.17520000  1
  C  C1483  1  0.99711000  0.26276000  0.67520000  1
  C  C1484  1  0.99741000  0.70073000  0.75281000  1
  C  C1485  1  0.99741000  0.79927000  0.25281000  1
  C  C1486  1  0.99792000  0.74050000  0.80429000  1
  C  C1487  1  0.99792000  0.75950000  0.30429000  1
  N  N1488  1  0.00397000  0.18688000  0.15874000  1
  N  N1489  1  0.00397000  0.31312000  0.65874000  1
  N  N1490  1  0.03302000  0.16020000  0.81064000  1
  N  N1491  1  0.03302000  0.33980000  0.31064000  1
  N  N1492  1  0.15874000  0.00397000  0.18688000  1
  N  N1493  1  0.15874000  0.49603000  0.68688000  1
  N  N1494  1  0.16020000  0.68936000  0.53302000  1
  N  N1495  1  0.16020000  0.81064000  0.03302000  1
  N  N1496  1  0.18688000  0.15874000  0.00397000  1
  N  N1497  1  0.18688000  0.34126000  0.50397000  1
  N  N1498  1  0.18936000  0.53302000  0.33980000  1
  N  N1499  1  0.18936000  0.96698000  0.83980000  1
  N  N1500  1  0.31064000  0.03302000  0.33980000  1
  N  N1501  1  0.31064000  0.46698000  0.83980000  1
  N  N1502  1  0.31312000  0.65874000  0.00397000  1
  N  N1503  1  0.31312000  0.84126000  0.50397000  1
  N  N1504  1  0.33980000  0.18936000  0.53302000  1
  N  N1505  1  0.33980000  0.31064000  0.03302000  1
  N  N1506  1  0.34126000  0.50397000  0.18688000  1
  N  N1507  1  0.34126000  0.99603000  0.68688000  1
  N  N1508  1  0.46698000  0.66020000  0.81064000  1
  N  N1509  1  0.46698000  0.83980000  0.31064000  1
  N  N1510  1  0.49603000  0.68688000  0.15874000  1
  N  N1511  1  0.49603000  0.81312000  0.65874000  1
  N  N1512  1  0.50397000  0.18688000  0.34126000  1
  N  N1513  1  0.50397000  0.31312000  0.84126000  1
  N  N1514  1  0.53302000  0.16020000  0.68936000  1
  N  N1515  1  0.53302000  0.33980000  0.18936000  1
  N  N1516  1  0.65874000  0.00397000  0.31312000  1
  N  N1517  1  0.65874000  0.49603000  0.81312000  1
  N  N1518  1  0.66020000  0.68936000  0.96698000  1
  N  N1519  1  0.66020000  0.81064000  0.46698000  1
  N  N1520  1  0.68688000  0.15874000  0.49603000  1
  N  N1521  1  0.68688000  0.34126000  0.99603000  1
  N  N1522  1  0.68936000  0.53302000  0.16020000  1
  N  N1523  1  0.68936000  0.96698000  0.66020000  1
  N  N1524  1  0.81064000  0.03302000  0.16020000  1
  N  N1525  1  0.81064000  0.46698000  0.66020000  1
  N  N1526  1  0.81312000  0.65874000  0.49603000  1
  N  N1527  1  0.81312000  0.84126000  0.99603000  1
  N  N1528  1  0.83980000  0.18936000  0.96698000  1
  N  N1529  1  0.83980000  0.31064000  0.46698000  1
  N  N1530  1  0.84126000  0.50397000  0.31312000  1
  N  N1531  1  0.84126000  0.99603000  0.81312000  1
  N  N1532  1  0.96698000  0.66020000  0.68936000  1
  N  N1533  1  0.96698000  0.83980000  0.18936000  1
  N  N1534  1  0.99603000  0.68688000  0.34126000  1
  N  N1535  1  0.99603000  0.81312000  0.84126000  1
  O  O1536  1  0.00970000  0.14893000  0.94472000  1
  O  O1537  1  0.00970000  0.35107000  0.44472000  1
  O  O1538  1  0.01111000  0.15292000  0.02464000  1
  O  O1539  1  0.01111000  0.34708000  0.52464000  1
  O  O1540  1  0.01392000  0.02906000  0.84413000  1
  O  O1541  1  0.01392000  0.47094000  0.34413000  1
  O  O1542  1  0.01446000  0.19737000  0.94310000  1
  O  O1543  1  0.01446000  0.30263000  0.44310000  1
  O  O1544  1  0.01542000  0.55040000  0.35363000  1
  O  O1545  1  0.01542000  0.94960000  0.85363000  1
  O  O1546  1  0.01584000  0.02295000  0.79585000  1
  O  O1547  1  0.01584000  0.47705000  0.29585000  1
  O  O1548  1  0.01798000  0.20108000  0.02197000  1
  O  O1549  1  0.01798000  0.29892000  0.52197000  1
  O  O1550  1  0.01831000  0.55561000  0.30530000  1
  O  O1551  1  0.01831000  0.94439000  0.80530000  1
  O  O1552  1  0.02197000  0.01798000  0.20108000  1
  O  O1553  1  0.02197000  0.48202000  0.70108000  1
  O  O1554  1  0.02295000  0.70415000  0.51584000  1
  O  O1555  1  0.02295000  0.79585000  0.01584000  1
  O  O1556  1  0.02464000  0.01111000  0.15292000  1
  O  O1557  1  0.02464000  0.48889000  0.65292000  1
  O  O1558  1  0.02906000  0.65587000  0.51392000  1
  O  O1559  1  0.02906000  0.84413000  0.01392000  1
  O  O1560  1  0.05040000  0.14637000  0.98458000  1
  O  O1561  1  0.05040000  0.35363000  0.48458000  1
  O  O1562  1  0.05528000  0.50970000  0.35107000  1
  O  O1563  1  0.05528000  0.99030000  0.85107000  1
  O  O1564  1  0.05561000  0.19470000  0.98169000  1
  O  O1565  1  0.05561000  0.30530000  0.48169000  1
  O  O1566  1  0.05690000  0.51446000  0.30263000  1
  O  O1567  1  0.05690000  0.98554000  0.80263000  1
  O  O1568  1  0.14637000  0.51542000  0.55040000  1
  O  O1569  1  0.14637000  0.98458000  0.05040000  1
  O  O1570  1  0.14893000  0.55528000  0.50970000  1
  O  O1571  1  0.14893000  0.94472000  0.00970000  1
  O  O1572  1  0.15292000  0.02464000  0.01111000  1
  O  O1573  1  0.15292000  0.47536000  0.51111000  1
  O  O1574  1  0.15587000  0.51392000  0.47094000  1
  O  O1575  1  0.15587000  0.98608000  0.97094000  1
  O  O1576  1  0.19470000  0.51831000  0.55561000  1
  O  O1577  1  0.19470000  0.98169000  0.05561000  1
  O  O1578  1  0.19737000  0.55690000  0.51446000  1
  O  O1579  1  0.19737000  0.94310000  0.01446000  1
  O  O1580  1  0.20108000  0.02197000  0.01798000  1
  O  O1581  1  0.20108000  0.47803000  0.51798000  1
  O  O1582  1  0.20415000  0.51584000  0.47705000  1
  O  O1583  1  0.20415000  0.98416000  0.97705000  1
  O  O1584  1  0.29585000  0.01584000  0.47705000  1
  O  O1585  1  0.29585000  0.48416000  0.97705000  1
  O  O1586  1  0.29892000  0.52197000  0.01798000  1
  O  O1587  1  0.29892000  0.97803000  0.51798000  1
  O  O1588  1  0.30263000  0.05690000  0.51446000  1
  O  O1589  1  0.30263000  0.44310000  0.01446000  1
  O  O1590  1  0.30530000  0.01831000  0.55561000  1
  O  O1591  1  0.30530000  0.48169000  0.05561000  1
  O  O1592  1  0.34413000  0.01392000  0.47094000  1
  O  O1593  1  0.34413000  0.48608000  0.97094000  1
  O  O1594  1  0.34708000  0.52464000  0.01111000  1
  O  O1595  1  0.34708000  0.97536000  0.51111000  1
  O  O1596  1  0.35107000  0.05528000  0.50970000  1
  O  O1597  1  0.35107000  0.44472000  0.00970000  1
  O  O1598  1  0.35363000  0.01542000  0.55040000  1
  O  O1599  1  0.35363000  0.48458000  0.05040000  1
  O  O1600  1  0.44310000  0.01446000  0.30263000  1
  O  O1601  1  0.44310000  0.48554000  0.80263000  1
  O  O1602  1  0.44439000  0.69470000  0.98169000  1
  O  O1603  1  0.44439000  0.80530000  0.48169000  1
  O  O1604  1  0.44472000  0.00970000  0.35107000  1
  O  O1605  1  0.44472000  0.49030000  0.85107000  1
  O  O1606  1  0.44960000  0.64637000  0.98458000  1
  O  O1607  1  0.44960000  0.85363000  0.48458000  1
  O  O1608  1  0.47094000  0.15587000  0.51392000  1
  O  O1609  1  0.47094000  0.34413000  0.01392000  1
  O  O1610  1  0.47536000  0.51111000  0.15292000  1
  O  O1611  1  0.47536000  0.98889000  0.65292000  1
  O  O1612  1  0.47705000  0.20415000  0.51584000  1
  O  O1613  1  0.47705000  0.29585000  0.01584000  1
  O  O1614  1  0.47803000  0.51798000  0.20108000  1
  O  O1615  1  0.47803000  0.98202000  0.70108000  1
  O  O1616  1  0.48169000  0.05561000  0.30530000  1
  O  O1617  1  0.48169000  0.44439000  0.80530000  1
  O  O1618  1  0.48202000  0.70108000  0.02197000  1
  O  O1619  1  0.48202000  0.79892000  0.52197000  1
  O  O1620  1  0.48416000  0.52295000  0.79585000  1
  O  O1621  1  0.48416000  0.97705000  0.29585000  1
  O  O1622  1  0.48458000  0.05040000  0.35363000  1
  O  O1623  1  0.48458000  0.44960000  0.85363000  1
  O  O1624  1  0.48554000  0.69737000  0.94310000  1
  O  O1625  1  0.48554000  0.80263000  0.44310000  1
  O  O1626  1  0.48608000  0.52906000  0.84413000  1
  O  O1627  1  0.48608000  0.97094000  0.34413000  1
  O  O1628  1  0.48889000  0.65292000  0.02464000  1
  O  O1629  1  0.48889000  0.84708000  0.52464000  1
  O  O1630  1  0.49030000  0.64893000  0.94472000  1
  O  O1631  1  0.49030000  0.85107000  0.44472000  1
  O  O1632  1  0.50970000  0.14893000  0.55528000  1
  O  O1633  1  0.50970000  0.35107000  0.05528000  1
  O  O1634  1  0.51111000  0.15292000  0.47536000  1
  O  O1635  1  0.51111000  0.34708000  0.97536000  1
  O  O1636  1  0.51392000  0.02906000  0.65587000  1
  O  O1637  1  0.51392000  0.47094000  0.15587000  1
  O  O1638  1  0.51446000  0.19737000  0.55690000  1
  O  O1639  1  0.51446000  0.30263000  0.05690000  1
  O  O1640  1  0.51542000  0.55040000  0.14637000  1
  O  O1641  1  0.51542000  0.94960000  0.64637000  1
  O  O1642  1  0.51584000  0.02295000  0.70415000  1
  O  O1643  1  0.51584000  0.47705000  0.20415000  1
  O  O1644  1  0.51798000  0.20108000  0.47803000  1
  O  O1645  1  0.51798000  0.29892000  0.97803000  1
  O  O1646  1  0.51831000  0.55561000  0.19470000  1
  O  O1647  1  0.51831000  0.94439000  0.69470000  1
  O  O1648  1  0.52197000  0.01798000  0.29892000  1
  O  O1649  1  0.52197000  0.48202000  0.79892000  1
  O  O1650  1  0.52295000  0.70415000  0.98416000  1
  O  O1651  1  0.52295000  0.79585000  0.48416000  1
  O  O1652  1  0.52464000  0.01111000  0.34708000  1
  O  O1653  1  0.52464000  0.48889000  0.84708000  1
  O  O1654  1  0.52906000  0.65587000  0.98608000  1
  O  O1655  1  0.52906000  0.84413000  0.48608000  1
  O  O1656  1  0.55040000  0.14637000  0.51542000  1
  O  O1657  1  0.55040000  0.35363000  0.01542000  1
  O  O1658  1  0.55528000  0.50970000  0.14893000  1
  O  O1659  1  0.55528000  0.99030000  0.64893000  1
  O  O1660  1  0.55561000  0.19470000  0.51831000  1
  O  O1661  1  0.55561000  0.30530000  0.01831000  1
  O  O1662  1  0.55690000  0.51446000  0.19737000  1
  O  O1663  1  0.55690000  0.98554000  0.69737000  1
  O  O1664  1  0.64637000  0.51542000  0.94960000  1
  O  O1665  1  0.64637000  0.98458000  0.44960000  1
  O  O1666  1  0.64893000  0.55528000  0.99030000  1
  O  O1667  1  0.64893000  0.94472000  0.49030000  1
  O  O1668  1  0.65292000  0.02464000  0.48889000  1
  O  O1669  1  0.65292000  0.47536000  0.98889000  1
  O  O1670  1  0.65587000  0.51392000  0.02906000  1
  O  O1671  1  0.65587000  0.98608000  0.52906000  1
  O  O1672  1  0.69470000  0.51831000  0.94439000  1
  O  O1673  1  0.69470000  0.98169000  0.44439000  1
  O  O1674  1  0.69737000  0.55690000  0.98554000  1
  O  O1675  1  0.69737000  0.94310000  0.48554000  1
  O  O1676  1  0.70108000  0.02197000  0.48202000  1
  O  O1677  1  0.70108000  0.47803000  0.98202000  1
  O  O1678  1  0.70415000  0.51584000  0.02295000  1
  O  O1679  1  0.70415000  0.98416000  0.52295000  1
  O  O1680  1  0.79585000  0.01584000  0.02295000  1
  O  O1681  1  0.79585000  0.48416000  0.52295000  1
  O  O1682  1  0.79892000  0.52197000  0.48202000  1
  O  O1683  1  0.79892000  0.97803000  0.98202000  1
  O  O1684  1  0.80263000  0.05690000  0.98554000  1
  O  O1685  1  0.80263000  0.44310000  0.48554000  1
  O  O1686  1  0.80530000  0.01831000  0.94439000  1
  O  O1687  1  0.80530000  0.48169000  0.44439000  1
  O  O1688  1  0.84413000  0.01392000  0.02906000  1
  O  O1689  1  0.84413000  0.48608000  0.52906000  1
  O  O1690  1  0.84708000  0.52464000  0.48889000  1
  O  O1691  1  0.84708000  0.97536000  0.98889000  1
  O  O1692  1  0.85107000  0.05528000  0.99030000  1
  O  O1693  1  0.85107000  0.44472000  0.49030000  1
  O  O1694  1  0.85363000  0.01542000  0.94960000  1
  O  O1695  1  0.85363000  0.48458000  0.44960000  1
  O  O1696  1  0.94310000  0.01446000  0.19737000  1
  O  O1697  1  0.94310000  0.48554000  0.69737000  1
  O  O1698  1  0.94439000  0.69470000  0.51831000  1
  O  O1699  1  0.94439000  0.80530000  0.01831000  1
  O  O1700  1  0.94472000  0.00970000  0.14893000  1
  O  O1701  1  0.94472000  0.49030000  0.64893000  1
  O  O1702  1  0.94960000  0.64637000  0.51542000  1
  O  O1703  1  0.94960000  0.85363000  0.01542000  1
  O  O1704  1  0.97094000  0.15587000  0.98608000  1
  O  O1705  1  0.97094000  0.34413000  0.48608000  1
  O  O1706  1  0.97536000  0.51111000  0.34708000  1
  O  O1707  1  0.97536000  0.98889000  0.84708000  1
  O  O1708  1  0.97705000  0.20415000  0.98416000  1
  O  O1709  1  0.97705000  0.29585000  0.48416000  1
  O  O1710  1  0.97803000  0.51798000  0.29892000  1
  O  O1711  1  0.97803000  0.98202000  0.79892000  1
  O  O1712  1  0.98169000  0.05561000  0.19470000  1
  O  O1713  1  0.98169000  0.44439000  0.69470000  1
  O  O1714  1  0.98202000  0.70108000  0.47803000  1
  O  O1715  1  0.98202000  0.79892000  0.97803000  1
  O  O1716  1  0.98416000  0.52295000  0.70415000  1
  O  O1717  1  0.98416000  0.97705000  0.20415000  1
  O  O1718  1  0.98458000  0.05040000  0.14637000  1
  O  O1719  1  0.98458000  0.44960000  0.64637000  1
  O  O1720  1  0.98554000  0.69737000  0.55690000  1
  O  O1721  1  0.98554000  0.80263000  0.05690000  1
  O  O1722  1  0.98608000  0.52906000  0.65587000  1
  O  O1723  1  0.98608000  0.97094000  0.15587000  1
  O  O1724  1  0.98889000  0.65292000  0.47536000  1
  O  O1725  1  0.98889000  0.84708000  0.97536000  1
  O  O1726  1  0.99030000  0.64893000  0.55528000  1
  O  O1727  1  0.99030000  0.85107000  0.05528000  1
