# generated using pymatgen
data_Mg3H8C24(SO4)4
_symmetry_space_group_name_H-M   'P 1'
_cell_length_a   9.66150000
_cell_length_b   10.49000000
_cell_length_c   11.94040000
_cell_angle_alpha   110.29500000
_cell_angle_beta   91.87500000
_cell_angle_gamma   114.86000000
_symmetry_Int_Tables_number   1
_chemical_formula_structural   Mg3H8C24(SO4)4
_chemical_formula_sum   'Mg3 H8 C24 S4 O16'
_cell_volume   1006.92965388
_cell_formula_units_Z   1
loop_
 _symmetry_equiv_pos_site_id
 _symmetry_equiv_pos_as_xyz
  1  'x, y, z'
loop_
 _atom_site_type_symbol
 _atom_site_label
 _atom_site_symmetry_multiplicity
 _atom_site_fract_x
 _atom_site_fract_y
 _atom_site_fract_z
 _atom_site_occupancy
  Mg  Mg0  1  0.47138000  0.91564000  0.67339000  1
  Mg  Mg1  1  0.50000000  0.00000000  0.00000000  1
  Mg  Mg2  1  0.52862000  0.08436000  0.32661000  1
  H  H3  1  0.04670000  0.22570000  0.04290000  1
  H  H4  1  0.27960000  0.19230000  0.00740000  1
  H  H5  1  0.43360000  0.52330000  0.92900000  1
  H  H6  1  0.48150000  0.30050000  0.84610000  1
  H  H7  1  0.51850000  0.69950000  0.15390000  1
  H  H8  1  0.56640000  0.47670000  0.07100000  1
  H  H9  1  0.72040000  0.80770000  0.99260000  1
  H  H10  1  0.95330000  0.77430000  0.95710000  1
  C  C11  1  0.05120000  0.15610000  0.97110000  1
  C  C12  1  0.07090000  0.93840000  0.12660000  1
  C  C13  1  0.16190000  0.02570000  0.83910000  1
  C  C14  1  0.18540000  0.13620000  0.95070000  1
  C  C15  1  0.23480000  0.95930000  0.14170000  1
  C  C16  1  0.27250000  0.97350000  0.78280000  1
  C  C17  1  0.43640000  0.69340000  0.78990000  1
  C  C18  1  0.45160000  0.48730000  0.85090000  1
  C  C19  1  0.45400000  0.55260000  0.76930000  1
  C  C20  1  0.46270000  0.79430000  0.39240000  1
  C  C21  1  0.47970000  0.35890000  0.80310000  1
  C  C22  1  0.49630000  0.66970000  0.31280000  1
  C  C23  1  0.50370000  0.33030000  0.68720000  1
  C  C24  1  0.52030000  0.64110000  0.19690000  1
  C  C25  1  0.53730000  0.20570000  0.60760000  1
  C  C26  1  0.54600000  0.44740000  0.23070000  1
  C  C27  1  0.54840000  0.51270000  0.14910000  1
  C  C28  1  0.56360000  0.30660000  0.21010000  1
  C  C29  1  0.72750000  0.02650000  0.21720000  1
  C  C30  1  0.76520000  0.04070000  0.85830000  1
  C  C31  1  0.81460000  0.86380000  0.04930000  1
  C  C32  1  0.83810000  0.97430000  0.16090000  1
  C  C33  1  0.92910000  0.06160000  0.87340000  1
  C  C34  1  0.94880000  0.84390000  0.02890000  1
  S  S35  1  0.02389000  0.05301000  0.24333000  1
  S  S36  1  0.49028000  0.45815000  0.63431000  1
  S  S37  1  0.50972000  0.54185000  0.36569000  1
  S  S38  1  0.97611000  0.94699000  0.75667000  1
  O  O39  1  0.23830000  0.89280000  0.66974000  1
  O  O40  1  0.28480000  0.92080000  0.04735000  1
  O  O41  1  0.30680000  0.01560000  0.25045000  1
  O  O42  1  0.40257000  0.01440000  0.84590000  1
  O  O43  1  0.40800000  0.71500000  0.69682000  1
  O  O44  1  0.44050000  0.79410000  0.49545000  1
  O  O45  1  0.45360000  0.77810000  0.89878000  1
  O  O46  1  0.45540000  0.88410000  0.35015000  1
  O  O47  1  0.54460000  0.11590000  0.64985000  1
  O  O48  1  0.54640000  0.22190000  0.10122000  1
  O  O49  1  0.55950000  0.20590000  0.50455000  1
  O  O50  1  0.59200000  0.28500000  0.30318000  1
  O  O51  1  0.59743000  0.98560000  0.15410000  1
  O  O52  1  0.69320000  0.98440000  0.74955000  1
  O  O53  1  0.71520000  0.07920000  0.95265000  1
  O  O54  1  0.76170000  0.10720000  0.33026000  1
