# generated using pymatgen
data_CoH8C12(NO2)2
_symmetry_space_group_name_H-M   'P 1'
_cell_length_a   9.81900000
_cell_length_b   11.07310000
_cell_length_c   12.64990000
_cell_angle_alpha   90.00000000
_cell_angle_beta   90.00000000
_cell_angle_gamma   99.85200000
_symmetry_Int_Tables_number   1
_chemical_formula_structural   CoH8C12(NO2)2
_chemical_formula_sum   'Co4 H32 C48 N8 O16'
_cell_volume   1355.10000566
_cell_formula_units_Z   4
loop_
 _symmetry_equiv_pos_site_id
 _symmetry_equiv_pos_as_xyz
  1  'x, y, z'
loop_
 _atom_site_type_symbol
 _atom_site_label
 _atom_site_symmetry_multiplicity
 _atom_site_fract_x
 _atom_site_fract_y
 _atom_site_fract_z
 _atom_site_occupancy
  Co  Co0  1  0.12720000  0.24923000  0.06632000  1
  Co  Co1  1  0.37640000  0.74812000  0.56436000  1
  Co  Co2  1  0.62360000  0.25188000  0.06436000  1
  Co  Co3  1  0.87280000  0.75077000  0.56632000  1
  H  H4  1  0.10290000  0.24130000  0.31270000  1
  H  H5  1  0.10340000  0.36740000  0.45860000  1
  H  H6  1  0.10550000  0.64690000  0.25880000  1
  H  H7  1  0.12090000  0.51920000  0.12330000  1
  H  H8  1  0.12820000  0.25440000  0.82320000  1
  H  H9  1  0.12840000  0.13120000  0.68190000  1
  H  H10  1  0.14720000  0.99220000  0.30010000  1
  H  H11  1  0.14850000  0.98410000  0.01550000  1
  H  H12  1  0.15890000  0.85180000  0.87700000  1
  H  H13  1  0.16350000  0.86470000  0.43980000  1
  H  H14  1  0.19230000  0.49420000  0.88090000  1
  H  H15  1  0.19470000  0.62720000  0.74580000  1
  H  H16  1  0.39710000  0.48740000  0.33940000  1
  H  H17  1  0.41210000  0.35820000  0.19820000  1
  H  H18  1  0.44540000  0.13140000  0.88480000  1
  H  H19  1  0.45440000  0.00780000  0.73500000  1
  H  H20  1  0.54560000  0.99220000  0.23500000  1
  H  H21  1  0.55460000  0.86860000  0.38480000  1
  H  H22  1  0.58790000  0.64180000  0.69820000  1
  H  H23  1  0.60290000  0.51260000  0.83940000  1
  H  H24  1  0.80530000  0.37280000  0.24580000  1
  H  H25  1  0.80770000  0.50580000  0.38090000  1
  H  H26  1  0.83650000  0.13530000  0.93980000  1
  H  H27  1  0.84110000  0.14820000  0.37700000  1
  H  H28  1  0.85150000  0.01590000  0.51550000  1
  H  H29  1  0.85280000  0.00780000  0.80010000  1
  H  H30  1  0.87160000  0.86880000  0.18190000  1
  H  H31  1  0.87180000  0.74560000  0.32320000  1
  H  H32  1  0.87910000  0.48080000  0.62330000  1
  H  H33  1  0.89450000  0.35310000  0.75880000  1
  H  H34  1  0.89660000  0.63260000  0.95860000  1
  H  H35  1  0.89710000  0.75870000  0.81270000  1
  C  C36  1  0.09290000  0.60480000  0.46650000  1
  C  C37  1  0.10390000  0.52390000  0.37410000  1
  C  C38  1  0.10460000  0.39970000  0.39070000  1
  C  C39  1  0.10720000  0.32490000  0.30160000  1
  C  C40  1  0.10790000  0.56480000  0.27240000  1
  C  C41  1  0.11540000  0.48690000  0.19130000  1
  C  C42  1  0.13370000  0.17230000  0.83390000  1
  C  C43  1  0.13590000  0.09870000  0.74900000  1
  C  C44  1  0.14690000  0.01430000  0.94700000  1
  C  C45  1  0.14870000  0.97740000  0.75830000  1
  C  C46  1  0.15260000  0.93330000  0.86400000  1
  C  C47  1  0.15340000  0.89100000  0.66760000  1
  C  C48  1  0.23140000  0.96850000  0.31570000  1
  C  C49  1  0.24200000  0.89170000  0.39940000  1
  C  C50  1  0.27430000  0.52320000  0.84540000  1
  C  C51  1  0.27720000  0.60170000  0.76370000  1
  C  C52  1  0.34790000  0.01080000  0.25410000  1
  C  C53  1  0.34790000  0.10220000  0.16480000  1
  C  C54  1  0.39750000  0.48690000  0.87500000  1
  C  C55  1  0.40740000  0.39820000  0.96690000  1
  C  C56  1  0.46770000  0.97000000  0.27700000  1
  C  C57  1  0.47160000  0.89290000  0.36640000  1
  C  C58  1  0.48150000  0.46670000  0.32020000  1
  C  C59  1  0.49170000  0.38870000  0.23630000  1
  C  C60  1  0.50830000  0.61130000  0.73630000  1
  C  C61  1  0.51850000  0.53330000  0.82020000  1
  C  C62  1  0.52840000  0.10710000  0.86640000  1
  C  C63  1  0.53230000  0.03000000  0.77700000  1
  C  C64  1  0.59260000  0.60180000  0.46690000  1
  C  C65  1  0.60250000  0.51310000  0.37500000  1
  C  C66  1  0.65210000  0.89780000  0.66480000  1
  C  C67  1  0.65210000  0.98920000  0.75410000  1
  C  C68  1  0.72280000  0.39830000  0.26370000  1
  C  C69  1  0.72570000  0.47680000  0.34540000  1
  C  C70  1  0.75800000  0.10830000  0.89940000  1
  C  C71  1  0.76860000  0.03150000  0.81570000  1
  C  C72  1  0.84660000  0.10900000  0.16760000  1
  C  C73  1  0.84740000  0.06670000  0.36400000  1
  C  C74  1  0.85130000  0.02260000  0.25830000  1
  C  C75  1  0.85310000  0.98570000  0.44700000  1
  C  C76  1  0.86410000  0.90130000  0.24900000  1
  C  C77  1  0.86630000  0.82770000  0.33390000  1
  C  C78  1  0.88460000  0.51310000  0.69130000  1
  C  C79  1  0.89210000  0.43520000  0.77240000  1
  C  C80  1  0.89280000  0.67510000  0.80160000  1
  C  C81  1  0.89540000  0.60030000  0.89070000  1
  C  C82  1  0.89610000  0.47610000  0.87410000  1
  C  C83  1  0.90710000  0.39520000  0.96650000  1
  N  N84  1  0.11540000  0.36520000  0.20200000  1
  N  N85  1  0.13930000  0.13030000  0.93500000  1
  N  N86  1  0.35820000  0.85430000  0.42510000  1
  N  N87  1  0.38790000  0.64540000  0.70700000  1
  N  N88  1  0.61210000  0.35460000  0.20700000  1
  N  N89  1  0.64180000  0.14570000  0.92510000  1
  N  N90  1  0.86070000  0.86970000  0.43500000  1
  N  N91  1  0.88460000  0.63480000  0.70200000  1
  O  O92  1  0.01520000  0.35440000  0.97440000  1
  O  O93  1  0.05250000  0.87370000  0.60890000  1
  O  O94  1  0.19380000  0.62570000  0.53230000  1
  O  O95  1  0.23230000  0.14840000  0.16450000  1
  O  O96  1  0.26600000  0.85280000  0.65960000  1
  O  O97  1  0.29900000  0.37090000  0.02080000  1
  O  O98  1  0.44480000  0.12480000  0.10550000  1
  O  O99  1  0.48180000  0.63530000  0.48080000  1
  O  O100  1  0.51820000  0.36470000  0.98080000  1
  O  O101  1  0.55520000  0.87520000  0.60550000  1
  O  O102  1  0.70100000  0.62910000  0.52080000  1
  O  O103  1  0.73400000  0.14720000  0.15960000  1
  O  O104  1  0.76770000  0.85160000  0.66450000  1
  O  O105  1  0.80620000  0.37430000  0.03230000  1
  O  O106  1  0.94750000  0.12630000  0.10890000  1
  O  O107  1  0.98480000  0.64560000  0.47440000  1
