# generated using pymatgen
data_Fe3H12C24O25
_symmetry_space_group_name_H-M   'P 1'
_cell_length_a   11.09100000
_cell_length_b   11.09100000
_cell_length_c   19.36400000
_cell_angle_alpha   90.00000000
_cell_angle_beta   90.00000000
_cell_angle_gamma   120.00000000
_symmetry_Int_Tables_number   1
_chemical_formula_structural   Fe3H12C24O25
_chemical_formula_sum   'Fe6 H24 C48 O50'
_cell_volume   2062.84746747
_cell_formula_units_Z   2
loop_
 _symmetry_equiv_pos_site_id
 _symmetry_equiv_pos_as_xyz
  1  'x, y, z'
loop_
 _atom_site_type_symbol
 _atom_site_label
 _atom_site_symmetry_multiplicity
 _atom_site_fract_x
 _atom_site_fract_y
 _atom_site_fract_z
 _atom_site_occupancy
  Fe  Fe0  1  0.76655000  0.23345000  0.25000000  1
  Fe  Fe1  1  0.76655000  0.53310000  0.25000000  1
  Fe  Fe2  1  0.53310000  0.76655000  0.75000000  1
  Fe  Fe3  1  0.46690000  0.23345000  0.25000000  1
  Fe  Fe4  1  0.23345000  0.46690000  0.75000000  1
  Fe  Fe5  1  0.23345000  0.76655000  0.75000000  1
  H  H6  1  0.98590000  0.28300000  0.38890000  1
  H  H7  1  0.98590000  0.28300000  0.11110000  1
  H  H8  1  0.98590000  0.70290000  0.38890000  1
  H  H9  1  0.98590000  0.70290000  0.11110000  1
  H  H10  1  0.71700000  0.01410000  0.38890000  1
  H  H11  1  0.71700000  0.01410000  0.11110000  1
  H  H12  1  0.71700000  0.70290000  0.38890000  1
  H  H13  1  0.71700000  0.70290000  0.11110000  1
  H  H14  1  0.70290000  0.71700000  0.88890000  1
  H  H15  1  0.70290000  0.71700000  0.61110000  1
  H  H16  1  0.70290000  0.98590000  0.88890000  1
  H  H17  1  0.70290000  0.98590000  0.61110000  1
  H  H18  1  0.29710000  0.01410000  0.38890000  1
  H  H19  1  0.29710000  0.01410000  0.11110000  1
  H  H20  1  0.29710000  0.28300000  0.38890000  1
  H  H21  1  0.29710000  0.28300000  0.11110000  1
  H  H22  1  0.28300000  0.29710000  0.88890000  1
  H  H23  1  0.28300000  0.29710000  0.61110000  1
  H  H24  1  0.28300000  0.98590000  0.88890000  1
  H  H25  1  0.28300000  0.98590000  0.61110000  1
  H  H26  1  0.01410000  0.29710000  0.88890000  1
  H  H27  1  0.01410000  0.29710000  0.61110000  1
  H  H28  1  0.01410000  0.71700000  0.88890000  1
  H  H29  1  0.01410000  0.71700000  0.61110000  1
  C  C30  1  0.98300000  0.38600000  0.46450000  1
  C  C31  1  0.98300000  0.38600000  0.03550000  1
  C  C32  1  0.98300000  0.59700000  0.46450000  1
  C  C33  1  0.98300000  0.59700000  0.03550000  1
  C  C34  1  0.95680000  0.47840000  0.43030000  1
  C  C35  1  0.95680000  0.47840000  0.06970000  1
  C  C36  1  0.91440000  0.45720000  0.35630000  1
  C  C37  1  0.91440000  0.45720000  0.14370000  1
  C  C38  1  0.61400000  0.01700000  0.46450000  1
  C  C39  1  0.61400000  0.01700000  0.03550000  1
  C  C40  1  0.61400000  0.59700000  0.46450000  1
  C  C41  1  0.61400000  0.59700000  0.03550000  1
  C  C42  1  0.59700000  0.61400000  0.96450000  1
  C  C43  1  0.59700000  0.61400000  0.53550000  1
  C  C44  1  0.59700000  0.98300000  0.96450000  1
  C  C45  1  0.59700000  0.98300000  0.53550000  1
  C  C46  1  0.54280000  0.08560000  0.35630000  1
  C  C47  1  0.54280000  0.08560000  0.14370000  1
  C  C48  1  0.54280000  0.45720000  0.35630000  1
  C  C49  1  0.54280000  0.45720000  0.14370000  1
  C  C50  1  0.52160000  0.04320000  0.43030000  1
  C  C51  1  0.52160000  0.04320000  0.06970000  1
  C  C52  1  0.52160000  0.47840000  0.43030000  1
  C  C53  1  0.52160000  0.47840000  0.06970000  1
  C  C54  1  0.47840000  0.52160000  0.93030000  1
  C  C55  1  0.47840000  0.52160000  0.56970000  1
  C  C56  1  0.47840000  0.95680000  0.93030000  1
  C  C57  1  0.47840000  0.95680000  0.56970000  1
  C  C58  1  0.45720000  0.54280000  0.85630000  1
  C  C59  1  0.45720000  0.54280000  0.64370000  1
  C  C60  1  0.45720000  0.91440000  0.85630000  1
  C  C61  1  0.45720000  0.91440000  0.64370000  1
  C  C62  1  0.40300000  0.01700000  0.46450000  1
  C  C63  1  0.40300000  0.01700000  0.03550000  1
  C  C64  1  0.40300000  0.38600000  0.46450000  1
  C  C65  1  0.40300000  0.38600000  0.03550000  1
  C  C66  1  0.38600000  0.40300000  0.96450000  1
  C  C67  1  0.38600000  0.40300000  0.53550000  1
  C  C68  1  0.38600000  0.98300000  0.96450000  1
  C  C69  1  0.38600000  0.98300000  0.53550000  1
  C  C70  1  0.08560000  0.54280000  0.85630000  1
  C  C71  1  0.08560000  0.54280000  0.64370000  1
  C  C72  1  0.04320000  0.52160000  0.93030000  1
  C  C73  1  0.04320000  0.52160000  0.56970000  1
  C  C74  1  0.01700000  0.40300000  0.96450000  1
  C  C75  1  0.01700000  0.40300000  0.53550000  1
  C  C76  1  0.01700000  0.61400000  0.96450000  1
  C  C77  1  0.01700000  0.61400000  0.53550000  1
  O  O78  1  0.99300000  0.27700000  0.43080000  1
  O  O79  1  0.99300000  0.27700000  0.06920000  1
  O  O80  1  0.99300000  0.71600000  0.43080000  1
  O  O81  1  0.99300000  0.71600000  0.06920000  1
  O  O82  1  0.89860000  0.34820000  0.32720000  1
  O  O83  1  0.89860000  0.34820000  0.17280000  1
  O  O84  1  0.89860000  0.55040000  0.32720000  1
  O  O85  1  0.89860000  0.55040000  0.17280000  1
  O  O86  1  0.72300000  0.00700000  0.43080000  1
  O  O87  1  0.72300000  0.00700000  0.06920000  1
  O  O88  1  0.72300000  0.71600000  0.43080000  1
  O  O89  1  0.72300000  0.71600000  0.06920000  1
  O  O90  1  0.71600000  0.72300000  0.93080000  1
  O  O91  1  0.71600000  0.72300000  0.56920000  1
  O  O92  1  0.71600000  0.99300000  0.93080000  1
  O  O93  1  0.71600000  0.99300000  0.56920000  1
  O  O94  1  0.66666667  0.33333333  0.25000000  1
  O  O95  1  0.65180000  0.10140000  0.32720000  1
  O  O96  1  0.65180000  0.10140000  0.17280000  1
  O  O97  1  0.65180000  0.55040000  0.32720000  1
  O  O98  1  0.65180000  0.55040000  0.17280000  1
  O  O99  1  0.55040000  0.65180000  0.82720000  1
  O  O100  1  0.55040000  0.65180000  0.67280000  1
  O  O101  1  0.55040000  0.89860000  0.82720000  1
  O  O102  1  0.55040000  0.89860000  0.67280000  1
  O  O103  1  0.44960000  0.10140000  0.32720000  1
  O  O104  1  0.44960000  0.10140000  0.17280000  1
  O  O105  1  0.44960000  0.34820000  0.32720000  1
  O  O106  1  0.44960000  0.34820000  0.17280000  1
  O  O107  1  0.34820000  0.44960000  0.82720000  1
  O  O108  1  0.34820000  0.44960000  0.67280000  1
  O  O109  1  0.34820000  0.89860000  0.82720000  1
  O  O110  1  0.34820000  0.89860000  0.67280000  1
  O  O111  1  0.33333333  0.66666667  0.75000000  1
  O  O112  1  0.28400000  0.00700000  0.43080000  1
  O  O113  1  0.28400000  0.00700000  0.06920000  1
  O  O114  1  0.28400000  0.27700000  0.43080000  1
  O  O115  1  0.28400000  0.27700000  0.06920000  1
  O  O116  1  0.27700000  0.28400000  0.93080000  1
  O  O117  1  0.27700000  0.28400000  0.56920000  1
  O  O118  1  0.27700000  0.99300000  0.93080000  1
  O  O119  1  0.27700000  0.99300000  0.56920000  1
  O  O120  1  0.10140000  0.44960000  0.82720000  1
  O  O121  1  0.10140000  0.44960000  0.67280000  1
  O  O122  1  0.10140000  0.65180000  0.82720000  1
  O  O123  1  0.10140000  0.65180000  0.67280000  1
  O  O124  1  0.00700000  0.28400000  0.93080000  1
  O  O125  1  0.00700000  0.28400000  0.56920000  1
  O  O126  1  0.00700000  0.72300000  0.93080000  1
  O  O127  1  0.00700000  0.72300000  0.56920000  1
