# generated using pymatgen
data_MnH12C20S2(N2O3)2
_symmetry_space_group_name_H-M   'P 1'
_cell_length_a   9.31600000
_cell_length_b   11.91700000
_cell_length_c   25.51500000
_cell_angle_alpha   90.00000000
_cell_angle_beta   94.66300000
_cell_angle_gamma   90.00000000
_symmetry_Int_Tables_number   1
_chemical_formula_structural   MnH12C20S2(N2O3)2
_chemical_formula_sum   'Mn4 H48 C80 S8 N16 O24'
_cell_volume   2823.26817831
_cell_formula_units_Z   4
loop_
 _symmetry_equiv_pos_site_id
 _symmetry_equiv_pos_as_xyz
  1  'x, y, z'
loop_
 _atom_site_type_symbol
 _atom_site_label
 _atom_site_symmetry_multiplicity
 _atom_site_fract_x
 _atom_site_fract_y
 _atom_site_fract_z
 _atom_site_occupancy
  Mn  Mn0  1  0.07356000  0.39945000  0.79405000  1
  Mn  Mn1  1  0.07356000  0.60055000  0.29405000  1
  Mn  Mn2  1  0.55567000  0.08057000  0.47874000  1
  Mn  Mn3  1  0.55567000  0.91943000  0.97874000  1
  H  H4  1  0.00180000  0.02180000  0.20400000  1
  H  H5  1  0.00180000  0.97820000  0.70400000  1
  H  H6  1  0.05850000  0.37020000  0.19130000  1
  H  H7  1  0.05850000  0.62980000  0.69130000  1
  H  H8  1  0.08260000  0.07860000  0.96880000  1
  H  H9  1  0.08260000  0.92140000  0.46880000  1
  H  H10  1  0.08270000  0.07480000  0.87690000  1
  H  H11  1  0.08270000  0.92520000  0.37690000  1
  H  H12  1  0.15540000  0.45980000  0.55970000  1
  H  H13  1  0.15540000  0.54020000  0.05970000  1
  H  H14  1  0.17030000  0.27660000  0.33333333  1
  H  H15  1  0.17030000  0.72340000  0.83330000  1
  H  H16  1  0.23940000  0.00420000  0.24070000  1
  H  H17  1  0.23940000  0.99580000  0.74070000  1
  H  H18  1  0.36810000  0.43800000  0.45700000  1
  H  H19  1  0.36810000  0.56200000  0.95700000  1
  H  H20  1  0.37700000  0.27760000  0.22200000  1
  H  H21  1  0.37700000  0.72240000  0.72200000  1
  H  H22  1  0.38110000  0.31220000  0.00790000  1
  H  H23  1  0.38110000  0.68780000  0.50790000  1
  H  H24  1  0.39180000  0.49670000  0.27800000  1
  H  H25  1  0.39180000  0.50330000  0.77800000  1
  H  H26  1  0.39930000  0.30560000  0.13330000  1
  H  H27  1  0.39930000  0.69440000  0.63330000  1
  H  H28  1  0.51890000  0.17790000  0.08190000  1
  H  H29  1  0.51890000  0.82210000  0.58190000  1
  H  H30  1  0.52240000  0.45270000  0.05050000  1
  H  H31  1  0.52240000  0.54730000  0.55050000  1
  H  H32  1  0.57700000  0.37930000  0.41800000  1
  H  H33  1  0.57700000  0.62070000  0.91800000  1
  H  H34  1  0.57950000  0.40700000  0.32310000  1
  H  H35  1  0.57950000  0.59300000  0.82310000  1
  H  H36  1  0.63260000  0.00440000  0.71450000  1
  H  H37  1  0.63260000  0.99560000  0.21450000  1
  H  H38  1  0.70630000  0.23670000  0.91660000  1
  H  H39  1  0.70630000  0.76330000  0.41660000  1
  H  H40  1  0.76040000  0.48130000  0.02620000  1
  H  H41  1  0.76040000  0.51870000  0.52620000  1
  H  H42  1  0.85640000  0.16330000  0.23020000  1
  H  H43  1  0.85640000  0.83670000  0.73020000  1
  H  H44  1  0.87930000  0.02520000  0.00830000  1
  H  H45  1  0.87930000  0.97480000  0.50830000  1
  H  H46  1  0.88230000  0.00610000  0.32680000  1
  H  H47  1  0.88230000  0.99390000  0.82680000  1
  H  H48  1  0.91440000  0.25420000  0.04770000  1
  H  H49  1  0.91440000  0.74580000  0.54770000  1
  H  H50  1  0.94570000  0.23560000  0.13910000  1
  H  H51  1  0.94570000  0.76440000  0.63910000  1
  C  C52  1  0.00040000  0.05260000  0.94790000  1
  C  C53  1  0.00040000  0.94740000  0.44790000  1
  C  C54  1  0.00070000  0.23230000  0.28270000  1
  C  C55  1  0.00070000  0.76770000  0.78270000  1
  C  C56  1  0.00210000  0.04750000  0.89360000  1
  C  C57  1  0.00210000  0.95250000  0.39360000  1
  C  C58  1  0.02190000  0.41320000  0.98650000  1
  C  C59  1  0.02190000  0.58680000  0.48650000  1
  C  C60  1  0.03030000  0.40040000  0.04410000  1
  C  C61  1  0.03030000  0.59960000  0.54410000  1
  C  C62  1  0.03860000  0.07380000  0.22990000  1
  C  C63  1  0.03860000  0.92620000  0.72990000  1
  C  C64  1  0.05330000  0.37740000  0.15410000  1
  C  C65  1  0.05330000  0.62260000  0.65410000  1
  C  C66  1  0.10880000  0.47990000  0.07570000  1
  C  C67  1  0.10880000  0.52010000  0.57570000  1
  C  C68  1  0.11850000  0.47100000  0.13020000  1
  C  C69  1  0.11850000  0.52900000  0.63020000  1
  C  C70  1  0.13980000  0.22540000  0.30620000  1
  C  C71  1  0.13980000  0.77460000  0.80620000  1
  C  C72  1  0.13990000  0.45280000  0.91350000  1
  C  C73  1  0.13990000  0.54720000  0.41350000  1
  C  C74  1  0.18040000  0.06350000  0.25150000  1
  C  C75  1  0.18040000  0.93650000  0.75150000  1
  C  C76  1  0.23700000  0.14390000  0.29040000  1
  C  C77  1  0.23700000  0.85610000  0.79040000  1
  C  C78  1  0.26790000  0.49720000  0.88920000  1
  C  C79  1  0.26790000  0.50280000  0.38920000  1
  C  C80  1  0.37720000  0.44950000  0.42060000  1
  C  C81  1  0.37720000  0.55050000  0.92060000  1
  C  C82  1  0.38240000  0.13120000  0.31360000  1
  C  C83  1  0.38240000  0.86880000  0.81360000  1
  C  C84  1  0.38800000  0.48510000  0.31470000  1
  C  C85  1  0.38800000  0.51490000  0.81470000  1
  C  C86  1  0.43060000  0.22710000  0.20230000  1
  C  C87  1  0.43060000  0.77290000  0.70230000  1
  C  C88  1  0.44290000  0.24130000  0.14980000  1
  C  C89  1  0.44290000  0.75870000  0.64980000  1
  C  C90  1  0.47470000  0.32700000  0.99740000  1
  C  C91  1  0.47470000  0.67300000  0.49740000  1
  C  C92  1  0.49870000  0.41380000  0.39790000  1
  C  C93  1  0.49870000  0.58620000  0.89790000  1
  C  C94  1  0.50020000  0.43220000  0.34120000  1
  C  C95  1  0.50020000  0.56780000  0.84120000  1
  C  C96  1  0.50420000  0.13010000  0.22660000  1
  C  C97  1  0.50420000  0.86990000  0.72660000  1
  C  C98  1  0.50670000  0.11370000  0.28470000  1
  C  C99  1  0.50670000  0.88630000  0.78470000  1
  C  C100  1  0.51670000  0.16630000  0.11870000  1
  C  C101  1  0.51670000  0.83370000  0.61870000  1
  C  C102  1  0.52520000  0.26590000  0.95600000  1
  C  C103  1  0.52520000  0.73410000  0.45600000  1
  C  C104  1  0.55880000  0.40920000  0.02340000  1
  C  C105  1  0.55880000  0.59080000  0.52340000  1
  C  C106  1  0.58220000  0.05700000  0.19790000  1
  C  C107  1  0.58220000  0.94300000  0.69790000  1
  C  C108  1  0.58510000  0.07630000  0.14300000  1
  C  C109  1  0.58510000  0.92370000  0.64300000  1
  C  C110  1  0.63620000  0.07700000  0.36180000  1
  C  C111  1  0.63620000  0.92300000  0.86180000  1
  C  C112  1  0.66830000  0.28210000  0.94270000  1
  C  C113  1  0.66830000  0.71790000  0.44270000  1
  C  C114  1  0.70100000  0.42650000  0.00830000  1
  C  C115  1  0.70100000  0.57350000  0.50830000  1
  C  C116  1  0.75410000  0.36600000  0.96850000  1
  C  C117  1  0.75410000  0.63400000  0.46850000  1
  C  C118  1  0.76710000  0.03200000  0.39080000  1
  C  C119  1  0.76710000  0.96800000  0.89080000  1
  C  C120  1  0.87920000  0.01960000  0.97120000  1
  C  C121  1  0.87920000  0.98040000  0.47120000  1
  C  C122  1  0.88320000  0.00160000  0.86380000  1
  C  C123  1  0.88320000  0.99840000  0.36380000  1
  C  C124  1  0.89770000  0.38430000  0.95190000  1
  C  C125  1  0.89770000  0.61570000  0.45190000  1
  C  C126  1  0.95240000  0.15740000  0.24560000  1
  C  C127  1  0.95240000  0.84260000  0.74560000  1
  C  C128  1  0.96750000  0.30890000  0.06820000  1
  C  C129  1  0.96750000  0.69110000  0.56820000  1
  C  C130  1  0.98440000  0.29960000  0.12310000  1
  C  C131  1  0.98440000  0.70040000  0.62310000  1
  S  S132  1  0.22060000  0.43290000  0.66948000  1
  S  S133  1  0.22060000  0.56710000  0.16948000  1
  S  S134  1  0.41740000  0.16210000  0.92317000  1
  S  S135  1  0.41740000  0.83790000  0.42317000  1
  S  S136  1  0.68730000  0.01620000  0.60583000  1
  S  S137  1  0.68730000  0.98380000  0.10583000  1
  S  S138  1  0.88980000  0.34410000  0.30183000  1
  S  S139  1  0.88980000  0.65590000  0.80183000  1
  N  N140  1  0.03810000  0.40190000  0.88120000  1
  N  N141  1  0.03810000  0.59810000  0.38120000  1
  N  N142  1  0.14000000  0.45380000  0.96650000  1
  N  N143  1  0.14000000  0.54620000  0.46650000  1
  N  N144  1  0.27230000  0.47790000  0.83710000  1
  N  N145  1  0.27230000  0.52210000  0.33710000  1
  N  N146  1  0.39980000  0.13950000  0.36510000  1
  N  N147  1  0.39980000  0.86050000  0.86510000  1
  N  N148  1  0.53070000  0.11470000  0.39110000  1
  N  N149  1  0.53070000  0.88530000  0.89110000  1
  N  N150  1  0.62880000  0.08350000  0.30910000  1
  N  N151  1  0.62880000  0.91650000  0.80910000  1
  N  N152  1  0.75870000  0.02070000  0.44330000  1
  N  N153  1  0.75870000  0.97930000  0.94330000  1
  N  N154  1  0.91240000  0.37400000  0.90060000  1
  N  N155  1  0.91240000  0.62600000  0.40060000  1
  O  O156  1  0.16170000  0.43090000  0.71950000  1
  O  O157  1  0.16170000  0.56910000  0.21950000  1
  O  O158  1  0.20230000  0.32830000  0.64270000  1
  O  O159  1  0.20230000  0.67170000  0.14270000  1
  O  O160  1  0.27140000  0.21160000  0.91420000  1
  O  O161  1  0.27140000  0.78840000  0.41420000  1
  O  O162  1  0.36680000  0.47620000  0.67440000  1
  O  O163  1  0.36680000  0.52380000  0.17440000  1
  O  O164  1  0.41960000  0.06700000  0.95970000  1
  O  O165  1  0.41960000  0.93300000  0.45970000  1
  O  O166  1  0.48130000  0.13530000  0.87480000  1
  O  O167  1  0.48130000  0.86470000  0.37480000  1
  O  O168  1  0.61780000  0.00910000  0.55230000  1
  O  O169  1  0.61780000  0.99090000  0.05230000  1
  O  O170  1  0.68380000  0.12400000  0.62790000  1
  O  O171  1  0.68380000  0.87600000  0.12790000  1
  O  O172  1  0.75260000  0.33090000  0.27150000  1
  O  O173  1  0.75260000  0.66910000  0.77150000  1
  O  O174  1  0.83530000  0.02430000  0.10980000  1
  O  O175  1  0.83530000  0.97570000  0.60980000  1
  O  O176  1  0.88520000  0.33660000  0.35520000  1
  O  O177  1  0.88520000  0.66340000  0.85520000  1
  O  O178  1  0.96020000  0.44400000  0.28690000  1
  O  O179  1  0.96020000  0.55600000  0.78690000  1
