# generated using pymatgen
data_ErH6(C2O)6
_symmetry_space_group_name_H-M   'P 1'
_cell_length_a   8.51390000
_cell_length_b   10.21650000
_cell_length_c   11.07210000
_cell_angle_alpha   64.20800000
_cell_angle_beta   71.56300000
_cell_angle_gamma   80.75200000
_symmetry_Int_Tables_number   1
_chemical_formula_structural   ErH6(C2O)6
_chemical_formula_sum   'Er2 H12 C24 O12'
_cell_volume   822.32497861
_cell_formula_units_Z   2
loop_
 _symmetry_equiv_pos_site_id
 _symmetry_equiv_pos_as_xyz
  1  'x, y, z'
loop_
 _atom_site_type_symbol
 _atom_site_label
 _atom_site_symmetry_multiplicity
 _atom_site_fract_x
 _atom_site_fract_y
 _atom_site_fract_z
 _atom_site_occupancy
  Er  Er0  1  0.13348000  0.93623000  0.16231000  1
  Er  Er1  1  0.86652000  0.06377000  0.83769000  1
  H  H2  1  0.00580000  0.52640000  0.78040000  1
  H  H3  1  0.05260000  0.72410000  0.81210000  1
  H  H4  1  0.22330000  0.54700000  0.58400000  1
  H  H5  1  0.27680000  0.88500000  0.51460000  1
  H  H6  1  0.36140000  0.36760000  0.73120000  1
  H  H7  1  0.46280000  0.14840000  0.61600000  1
  H  H8  1  0.53720000  0.85160000  0.38400000  1
  H  H9  1  0.63860000  0.63240000  0.26880000  1
  H  H10  1  0.72320000  0.11500000  0.48540000  1
  H  H11  1  0.77670000  0.45300000  0.41600000  1
  H  H12  1  0.94740000  0.27590000  0.18790000  1
  H  H13  1  0.99420000  0.47360000  0.21960000  1
  C  C14  1  0.00360000  0.51570000  0.86880000  1
  C  C15  1  0.02770000  0.61920000  0.01940000  1
  C  C16  1  0.03140000  0.63420000  0.88760000  1
  C  C17  1  0.05600000  0.74640000  0.04270000  1
  C  C18  1  0.17370000  0.04660000  0.66130000  1
  C  C19  1  0.32270000  0.72760000  0.32130000  1
  C  C20  1  0.33530000  0.52820000  0.54990000  1
  C  C21  1  0.34270000  0.02120000  0.57780000  1
  C  C22  1  0.36630000  0.93130000  0.50850000  1
  C  C23  1  0.41520000  0.60820000  0.41270000  1
  C  C24  1  0.41740000  0.42040000  0.63840000  1
  C  C25  1  0.47810000  0.08890000  0.56900000  1
  C  C26  1  0.52190000  0.91110000  0.43100000  1
  C  C27  1  0.58260000  0.57960000  0.36160000  1
  C  C28  1  0.58480000  0.39180000  0.58730000  1
  C  C29  1  0.63370000  0.06870000  0.49150000  1
  C  C30  1  0.65730000  0.97880000  0.42220000  1
  C  C31  1  0.66470000  0.47180000  0.45010000  1
  C  C32  1  0.67730000  0.27240000  0.67870000  1
  C  C33  1  0.82630000  0.95340000  0.33870000  1
  C  C34  1  0.94400000  0.25360000  0.95730000  1
  C  C35  1  0.96860000  0.36580000  0.11240000  1
  C  C36  1  0.97230000  0.38080000  0.98060000  1
  C  C37  1  0.99640000  0.48430000  0.13120000  1
  O  O38  1  0.01580000  0.87270000  0.96700000  1
  O  O39  1  0.05140000  0.98930000  0.66350000  1
  O  O40  1  0.12160000  0.72340000  0.13650000  1
  O  O41  1  0.15490000  0.12260000  0.73010000  1
  O  O42  1  0.17340000  0.75390000  0.37300000  1
  O  O43  1  0.39500000  0.80350000  0.19400000  1
  O  O44  1  0.60500000  0.19650000  0.80600000  1
  O  O45  1  0.82660000  0.24610000  0.62700000  1
  O  O46  1  0.84510000  0.87740000  0.26990000  1
  O  O47  1  0.87840000  0.27660000  0.86350000  1
  O  O48  1  0.94860000  0.01070000  0.33650000  1
  O  O49  1  0.98420000  0.12730000  0.03300000  1
