# generated using pymatgen
data_FeCoAg2H60(C14N3)6
_symmetry_space_group_name_H-M   'P 1'
_cell_length_a   12.60350000
_cell_length_b   26.81300000
_cell_length_c   33.47200000
_cell_angle_alpha   90.00000000
_cell_angle_beta   90.00000000
_cell_angle_gamma   90.00000000
_symmetry_Int_Tables_number   1
_chemical_formula_structural   FeCoAg2H60(C14N3)6
_chemical_formula_sum   'Fe4 Co4 Ag8 H240 C336 N72'
_cell_volume   11311.44887018
_cell_formula_units_Z   4
loop_
 _symmetry_equiv_pos_site_id
 _symmetry_equiv_pos_as_xyz
  1  'x, y, z'
loop_
 _atom_site_type_symbol
 _atom_site_label
 _atom_site_symmetry_multiplicity
 _atom_site_fract_x
 _atom_site_fract_y
 _atom_site_fract_z
 _atom_site_occupancy
  Fe  Fe0  1  0.01444000  0.93192000  0.11473000  1
  Fe  Fe1  1  0.48556000  0.56808000  0.61473000  1
  Fe  Fe2  1  0.48556000  0.43192000  0.88527000  1
  Fe  Fe3  1  0.01444000  0.06808000  0.38527000  1
  Co  Co4  1  0.98556000  0.93192000  0.61473000  1
  Co  Co5  1  0.51444000  0.56808000  0.11473000  1
  Co  Co6  1  0.51444000  0.43192000  0.38527000  1
  Co  Co7  1  0.98556000  0.06808000  0.88527000  1
  Ag  Ag8  1  0.74204000  0.77999000  0.36245000  1
  Ag  Ag9  1  0.25796000  0.77999000  0.86245000  1
  Ag  Ag10  1  0.75796000  0.72001000  0.86245000  1
  Ag  Ag11  1  0.24204000  0.72001000  0.36245000  1
  Ag  Ag12  1  0.75796000  0.27999000  0.63755000  1
  Ag  Ag13  1  0.24204000  0.27999000  0.13755000  1
  Ag  Ag14  1  0.74204000  0.22001000  0.13755000  1
  Ag  Ag15  1  0.25796000  0.22001000  0.63755000  1
  H  H16  1  0.62910000  0.99840000  0.57420000  1
  H  H17  1  0.37090000  0.99840000  0.07420000  1
  H  H18  1  0.86110000  0.99600000  0.06200000  1
  H  H19  1  0.13890000  0.99600000  0.56200000  1
  H  H20  1  0.83540000  0.98610000  0.98790000  1
  H  H21  1  0.16460000  0.98610000  0.48790000  1
  H  H22  1  0.80730000  0.97030000  0.67220000  1
  H  H23  1  0.19270000  0.97030000  0.17220000  1
  H  H24  1  0.78390000  0.96020000  0.14390000  1
  H  H25  1  0.21610000  0.96020000  0.64390000  1
  H  H26  1  0.72500000  0.95410000  0.33650000  1
  H  H27  1  0.27500000  0.95410000  0.83650000  1
  H  H28  1  0.79450000  0.95060000  0.74560000  1
  H  H29  1  0.20550000  0.95060000  0.24560000  1
  H  H30  1  0.75600000  0.92620000  0.58030000  1
  H  H31  1  0.24400000  0.92620000  0.08030000  1
  H  H32  1  0.72630000  0.92590000  0.90090000  1
  H  H33  1  0.27370000  0.92590000  0.40090000  1
  H  H34  1  0.96380000  0.92140000  0.96530000  1
  H  H35  1  0.03620000  0.92140000  0.46530000  1
  H  H36  1  0.80030000  0.91480000  0.47080000  1
  H  H37  1  0.19970000  0.91480000  0.97080000  1
  H  H38  1  0.81210000  0.90230000  0.82000000  1
  H  H39  1  0.18790000  0.90230000  0.32000000  1
  H  H40  1  0.87920000  0.89760000  0.34480000  1
  H  H41  1  0.12080000  0.89760000  0.84480000  1
  H  H42  1  0.94800000  0.89670000  0.76240000  1
  H  H43  1  0.05200000  0.89670000  0.26240000  1
  H  H44  1  0.82840000  0.88130000  0.06970000  1
  H  H45  1  0.17160000  0.88130000  0.56970000  1
  H  H46  1  0.73300000  0.88070000  0.23280000  1
  H  H47  1  0.26700000  0.88070000  0.73280000  1
  H  H48  1  0.73290000  0.87830000  0.41330000  1
  H  H49  1  0.26710000  0.87830000  0.91330000  1
  H  H50  1  0.99550000  0.86130000  0.41000000  1
  H  H51  1  0.00450000  0.86130000  0.91000000  1
  H  H52  1  0.85280000  0.84880000  0.65540000  1
  H  H53  1  0.14720000  0.84880000  0.15540000  1
  H  H54  1  0.67680000  0.84390000  0.29110000  1
  H  H55  1  0.32320000  0.84390000  0.79110000  1
  H  H56  1  0.69410000  0.82290000  0.09950000  1
  H  H57  1  0.30590000  0.82290000  0.59950000  1
  H  H58  1  0.76150000  0.81980000  0.81350000  1
  H  H59  1  0.23850000  0.81980000  0.31350000  1
  H  H60  1  0.74090000  0.81400000  0.17170000  1
  H  H61  1  0.25910000  0.81400000  0.67170000  1
  H  H62  1  0.99500000  0.80280000  0.74390000  1
  H  H63  1  0.00500000  0.80280000  0.24390000  1
  H  H64  1  0.77470000  0.79650000  0.54640000  1
  H  H65  1  0.22530000  0.79650000  0.04640000  1
  H  H66  1  0.94390000  0.78360000  0.49620000  1
  H  H67  1  0.05610000  0.78360000  0.99620000  1
  H  H68  1  0.75040000  0.78130000  0.61890000  1
  H  H69  1  0.24960000  0.78130000  0.11890000  1
  H  H70  1  0.94600000  0.78020000  0.90130000  1
  H  H71  1  0.05400000  0.78020000  0.40130000  1
  H  H72  1  0.93910000  0.76800000  0.30210000  1
  H  H73  1  0.06090000  0.76800000  0.80210000  1
  H  H74  1  0.88060000  0.75310000  0.43720000  1
  H  H75  1  0.11940000  0.75310000  0.93720000  1
  H  H76  1  0.61940000  0.74690000  0.93720000  1
  H  H77  1  0.38060000  0.74690000  0.43720000  1
  H  H78  1  0.56090000  0.73200000  0.80210000  1
  H  H79  1  0.43910000  0.73200000  0.30210000  1
  H  H80  1  0.55400000  0.71980000  0.40130000  1
  H  H81  1  0.44600000  0.71980000  0.90130000  1
  H  H82  1  0.74960000  0.71870000  0.11890000  1
  H  H83  1  0.25040000  0.71870000  0.61890000  1
  H  H84  1  0.55610000  0.71640000  0.99620000  1
  H  H85  1  0.44390000  0.71640000  0.49620000  1
  H  H86  1  0.72530000  0.70350000  0.04640000  1
  H  H87  1  0.27470000  0.70350000  0.54640000  1
  H  H88  1  0.50500000  0.69720000  0.24390000  1
  H  H89  1  0.49500000  0.69720000  0.74390000  1
  H  H90  1  0.75910000  0.68600000  0.67170000  1
  H  H91  1  0.24090000  0.68600000  0.17170000  1
  H  H92  1  0.73850000  0.68020000  0.31350000  1
  H  H93  1  0.26150000  0.68020000  0.81350000  1
  H  H94  1  0.80590000  0.67710000  0.59950000  1
  H  H95  1  0.19410000  0.67710000  0.09950000  1
  H  H96  1  0.82320000  0.65610000  0.79110000  1
  H  H97  1  0.17680000  0.65610000  0.29110000  1
  H  H98  1  0.64720000  0.65120000  0.15540000  1
  H  H99  1  0.35280000  0.65120000  0.65540000  1
  H  H100  1  0.50450000  0.63870000  0.91000000  1
  H  H101  1  0.49550000  0.63870000  0.41000000  1
  H  H102  1  0.76710000  0.62170000  0.91330000  1
  H  H103  1  0.23290000  0.62170000  0.41330000  1
  H  H104  1  0.76700000  0.61930000  0.73280000  1
  H  H105  1  0.23300000  0.61930000  0.23280000  1
  H  H106  1  0.67160000  0.61870000  0.56970000  1
  H  H107  1  0.32840000  0.61870000  0.06970000  1
  H  H108  1  0.55200000  0.60330000  0.26240000  1
  H  H109  1  0.44800000  0.60330000  0.76240000  1
  H  H110  1  0.62080000  0.60240000  0.84480000  1
  H  H111  1  0.37920000  0.60240000  0.34480000  1
  H  H112  1  0.68790000  0.59770000  0.32000000  1
  H  H113  1  0.31210000  0.59770000  0.82000000  1
  H  H114  1  0.69970000  0.58520000  0.97080000  1
  H  H115  1  0.30030000  0.58520000  0.47080000  1
  H  H116  1  0.53620000  0.57860000  0.46530000  1
  H  H117  1  0.46380000  0.57860000  0.96530000  1
  H  H118  1  0.77370000  0.57410000  0.40090000  1
  H  H119  1  0.22630000  0.57410000  0.90090000  1
  H  H120  1  0.74400000  0.57380000  0.08030000  1
  H  H121  1  0.25600000  0.57380000  0.58030000  1
  H  H122  1  0.70550000  0.54940000  0.24560000  1
  H  H123  1  0.29450000  0.54940000  0.74560000  1
  H  H124  1  0.77500000  0.54590000  0.83650000  1
  H  H125  1  0.22500000  0.54590000  0.33650000  1
  H  H126  1  0.71610000  0.53980000  0.64390000  1
  H  H127  1  0.28390000  0.53980000  0.14390000  1
  H  H128  1  0.69270000  0.52970000  0.17220000  1
  H  H129  1  0.30730000  0.52970000  0.67220000  1
  H  H130  1  0.66460000  0.51390000  0.48790000  1
  H  H131  1  0.33540000  0.51390000  0.98790000  1
  H  H132  1  0.63890000  0.50400000  0.56200000  1
  H  H133  1  0.36110000  0.50400000  0.06200000  1
  H  H134  1  0.87090000  0.50160000  0.07420000  1
  H  H135  1  0.12910000  0.50160000  0.57420000  1
  H  H136  1  0.87090000  0.49840000  0.42580000  1
  H  H137  1  0.12910000  0.49840000  0.92580000  1
  H  H138  1  0.63890000  0.49600000  0.93800000  1
  H  H139  1  0.36110000  0.49600000  0.43800000  1
  H  H140  1  0.66460000  0.48610000  0.01210000  1
  H  H141  1  0.33540000  0.48610000  0.51210000  1
  H  H142  1  0.69270000  0.47030000  0.32780000  1
  H  H143  1  0.30730000  0.47030000  0.82780000  1
  H  H144  1  0.71610000  0.46020000  0.85610000  1
  H  H145  1  0.28390000  0.46020000  0.35610000  1
  H  H146  1  0.77500000  0.45410000  0.66350000  1
  H  H147  1  0.22500000  0.45410000  0.16350000  1
  H  H148  1  0.70550000  0.45060000  0.25440000  1
  H  H149  1  0.29450000  0.45060000  0.75440000  1
  H  H150  1  0.74400000  0.42620000  0.41970000  1
  H  H151  1  0.25600000  0.42620000  0.91970000  1
  H  H152  1  0.77370000  0.42590000  0.09910000  1
  H  H153  1  0.22630000  0.42590000  0.59910000  1
  H  H154  1  0.53620000  0.42140000  0.03470000  1
  H  H155  1  0.46380000  0.42140000  0.53470000  1
  H  H156  1  0.69970000  0.41480000  0.52920000  1
  H  H157  1  0.30030000  0.41480000  0.02920000  1
  H  H158  1  0.68790000  0.40230000  0.18000000  1
  H  H159  1  0.31210000  0.40230000  0.68000000  1
  H  H160  1  0.62080000  0.39760000  0.65520000  1
  H  H161  1  0.37920000  0.39760000  0.15520000  1
  H  H162  1  0.55200000  0.39670000  0.23760000  1
  H  H163  1  0.44800000  0.39670000  0.73760000  1
  H  H164  1  0.67160000  0.38130000  0.93030000  1
  H  H165  1  0.32840000  0.38130000  0.43030000  1
  H  H166  1  0.76700000  0.38070000  0.76720000  1
  H  H167  1  0.23300000  0.38070000  0.26720000  1
  H  H168  1  0.76710000  0.37830000  0.58670000  1
  H  H169  1  0.23290000  0.37830000  0.08670000  1
  H  H170  1  0.50450000  0.36130000  0.59000000  1
  H  H171  1  0.49550000  0.36130000  0.09000000  1
  H  H172  1  0.64720000  0.34880000  0.34460000  1
  H  H173  1  0.35280000  0.34880000  0.84460000  1
  H  H174  1  0.82320000  0.34390000  0.70890000  1
  H  H175  1  0.17680000  0.34390000  0.20890000  1
  H  H176  1  0.80590000  0.32290000  0.90050000  1
  H  H177  1  0.19410000  0.32290000  0.40050000  1
  H  H178  1  0.73850000  0.31980000  0.18650000  1
  H  H179  1  0.26150000  0.31980000  0.68650000  1
  H  H180  1  0.75910000  0.31400000  0.82830000  1
  H  H181  1  0.24090000  0.31400000  0.32830000  1
  H  H182  1  0.50500000  0.30280000  0.25610000  1
  H  H183  1  0.49500000  0.30280000  0.75610000  1
  H  H184  1  0.72530000  0.29650000  0.45360000  1
  H  H185  1  0.27470000  0.29650000  0.95360000  1
  H  H186  1  0.55610000  0.28360000  0.50380000  1
  H  H187  1  0.44390000  0.28360000  0.00380000  1
  H  H188  1  0.74960000  0.28130000  0.38110000  1
  H  H189  1  0.25040000  0.28130000  0.88110000  1
  H  H190  1  0.55400000  0.28020000  0.09870000  1
  H  H191  1  0.44600000  0.28020000  0.59870000  1
  H  H192  1  0.56090000  0.26800000  0.69790000  1
  H  H193  1  0.43910000  0.26800000  0.19790000  1
  H  H194  1  0.61940000  0.25310000  0.56280000  1
  H  H195  1  0.38060000  0.25310000  0.06280000  1
  H  H196  1  0.88060000  0.24690000  0.06280000  1
  H  H197  1  0.11940000  0.24690000  0.56280000  1
  H  H198  1  0.93910000  0.23200000  0.19790000  1
  H  H199  1  0.06090000  0.23200000  0.69790000  1
  H  H200  1  0.94600000  0.21980000  0.59870000  1
  H  H201  1  0.05400000  0.21980000  0.09870000  1
  H  H202  1  0.75040000  0.21870000  0.88110000  1
  H  H203  1  0.24960000  0.21870000  0.38110000  1
  H  H204  1  0.94390000  0.21640000  0.00380000  1
  H  H205  1  0.05610000  0.21640000  0.50380000  1
  H  H206  1  0.77470000  0.20350000  0.95360000  1
  H  H207  1  0.22530000  0.20350000  0.45360000  1
  H  H208  1  0.99500000  0.19720000  0.75610000  1
  H  H209  1  0.00500000  0.19720000  0.25610000  1
  H  H210  1  0.74090000  0.18600000  0.32830000  1
  H  H211  1  0.25910000  0.18600000  0.82830000  1
  H  H212  1  0.76150000  0.18020000  0.68650000  1
  H  H213  1  0.23850000  0.18020000  0.18650000  1
  H  H214  1  0.69410000  0.17710000  0.40050000  1
  H  H215  1  0.30590000  0.17710000  0.90050000  1
  H  H216  1  0.67680000  0.15610000  0.20890000  1
  H  H217  1  0.32320000  0.15610000  0.70890000  1
  H  H218  1  0.85280000  0.15120000  0.84460000  1
  H  H219  1  0.14720000  0.15120000  0.34460000  1
  H  H220  1  0.99550000  0.13870000  0.09000000  1
  H  H221  1  0.00450000  0.13870000  0.59000000  1
  H  H222  1  0.73290000  0.12170000  0.08670000  1
  H  H223  1  0.26710000  0.12170000  0.58670000  1
  H  H224  1  0.73300000  0.11930000  0.26720000  1
  H  H225  1  0.26700000  0.11930000  0.76720000  1
  H  H226  1  0.82840000  0.11870000  0.43030000  1
  H  H227  1  0.17160000  0.11870000  0.93030000  1
  H  H228  1  0.94800000  0.10330000  0.73760000  1
  H  H229  1  0.05200000  0.10330000  0.23760000  1
  H  H230  1  0.87920000  0.10240000  0.15520000  1
  H  H231  1  0.12080000  0.10240000  0.65520000  1
  H  H232  1  0.81210000  0.09770000  0.68000000  1
  H  H233  1  0.18790000  0.09770000  0.18000000  1
  H  H234  1  0.80030000  0.08520000  0.02920000  1
  H  H235  1  0.19970000  0.08520000  0.52920000  1
  H  H236  1  0.96380000  0.07860000  0.53470000  1
  H  H237  1  0.03620000  0.07860000  0.03470000  1
  H  H238  1  0.72630000  0.07410000  0.59910000  1
  H  H239  1  0.27370000  0.07410000  0.09910000  1
  H  H240  1  0.75600000  0.07380000  0.91970000  1
  H  H241  1  0.24400000  0.07380000  0.41970000  1
  H  H242  1  0.79450000  0.04940000  0.75440000  1
  H  H243  1  0.20550000  0.04940000  0.25440000  1
  H  H244  1  0.72500000  0.04590000  0.16350000  1
  H  H245  1  0.27500000  0.04590000  0.66350000  1
  H  H246  1  0.78390000  0.03980000  0.35610000  1
  H  H247  1  0.21610000  0.03980000  0.85610000  1
  H  H248  1  0.80730000  0.02970000  0.82780000  1
  H  H249  1  0.19270000  0.02970000  0.32780000  1
  H  H250  1  0.83540000  0.01390000  0.51210000  1
  H  H251  1  0.16460000  0.01390000  0.01210000  1
  H  H252  1  0.86110000  0.00400000  0.43800000  1
  H  H253  1  0.13890000  0.00400000  0.93800000  1
  H  H254  1  0.62910000  0.00160000  0.92580000  1
  H  H255  1  0.37090000  0.00160000  0.42580000  1
  C  C256  1  0.69970000  0.99970000  0.58406000  1
  C  C257  1  0.30030000  0.99970000  0.08406000  1
  C  C258  1  0.82750000  0.98910000  0.14313000  1
  C  C259  1  0.17250000  0.98910000  0.64313000  1
  C  C260  1  0.85600000  0.97508000  0.89058000  1
  C  C261  1  0.14400000  0.97508000  0.39058000  1
  C  C262  1  0.89840000  0.97285000  0.04571000  1
  C  C263  1  0.10160000  0.97285000  0.54571000  1
  C  C264  1  0.88400000  0.96810000  0.00408000  1
  C  C265  1  0.11600000  0.96810000  0.50408000  1
  C  C266  1  0.79380000  0.96317000  0.34564000  1
  C  C267  1  0.20620000  0.96317000  0.84564000  1
  C  C268  1  0.96360000  0.96126000  0.36470000  1
  C  C269  1  0.03640000  0.96126000  0.86470000  1
  C  C270  1  0.77190000  0.95950000  0.58778000  1
  C  C271  1  0.22810000  0.95950000  0.08778000  1
  C  C272  1  0.75310000  0.95900000  0.90227000  1
  C  C273  1  0.24690000  0.95900000  0.40227000  1
  C  C274  1  0.85540000  0.94977000  0.68652000  1
  C  C275  1  0.14460000  0.94977000  0.18652000  1
  C  C276  1  0.93490000  0.94508000  0.87466000  1
  C  C277  1  0.06510000  0.94508000  0.37466000  1
  C  C278  1  0.84770000  0.93920000  0.72768000  1
  C  C279  1  0.15230000  0.93920000  0.22768000  1
  C  C280  1  0.95350000  0.93260000  0.99191000  1
  C  C281  1  0.04650000  0.93260000  0.49191000  1
  C  C282  1  0.87790000  0.93237000  0.35028000  1
  C  C283  1  0.12210000  0.93237000  0.85028000  1
  C  C284  1  0.99220000  0.91516000  0.52631000  1
  C  C285  1  0.00780000  0.91516000  0.02631000  1
  C  C286  1  0.93140000  0.90950000  0.73664000  1
  C  C287  1  0.06860000  0.90950000  0.23664000  1
  C  C288  1  0.99020000  0.90070000  0.70108000  1
  C  C289  1  0.00980000  0.90070000  0.20108000  1
  C  C290  1  0.90890000  0.89174000  0.86771000  1
  C  C291  1  0.09110000  0.89174000  0.36771000  1
  C  C292  1  0.81710000  0.88113000  0.46475000  1
  C  C293  1  0.18290000  0.88113000  0.96475000  1
  C  C294  1  0.83950000  0.87801000  0.83786000  1
  C  C295  1  0.16050000  0.87801000  0.33786000  1
  C  C296  1  0.91950000  0.87612000  0.52819000  1
  C  C297  1  0.08050000  0.87612000  0.02819000  1
  C  C298  1  0.92000000  0.87193000  0.19564000  1
  C  C299  1  0.08000000  0.87193000  0.69564000  1
  C  C300  1  0.82660000  0.87159000  0.09701000  1
  C  C301  1  0.17340000  0.87159000  0.59701000  1
  C  C302  1  0.86590000  0.86488000  0.15999000  1
  C  C303  1  0.13410000  0.86488000  0.65999000  1
  C  C304  1  0.77760000  0.85927000  0.43026000  1
  C  C305  1  0.22240000  0.85927000  0.93026000  1
  C  C306  1  0.77770000  0.85800000  0.24662000  1
  C  C307  1  0.22230000  0.85800000  0.74662000  1
  C  C308  1  0.87880000  0.85539000  0.56346000  1
  C  C309  1  0.12120000  0.85539000  0.06346000  1
  C  C310  1  0.95180000  0.85410000  0.89059000  1
  C  C311  1  0.04820000  0.85410000  0.39059000  1
  C  C312  1  0.88110000  0.85377000  0.49037000  1
  C  C313  1  0.11890000  0.85377000  0.99037000  1
  C  C314  1  0.87870000  0.84631000  0.23225000  1
  C  C315  1  0.12130000  0.84631000  0.73225000  1
  C  C316  1  0.85130000  0.84450000  0.62725000  1
  C  C317  1  0.14870000  0.84450000  0.12725000  1
  C  C318  1  0.75100000  0.83870000  0.11318000  1
  C  C319  1  0.24900000  0.83870000  0.61318000  1
  C  C320  1  0.74530000  0.83570000  0.28128000  1
  C  C321  1  0.25470000  0.83570000  0.78128000  1
  C  C322  1  0.77660000  0.83414000  0.15264000  1
  C  C323  1  0.22340000  0.83414000  0.65264000  1
  C  C324  1  0.81000000  0.82845000  0.83411000  1
  C  C325  1  0.19000000  0.82845000  0.33411000  1
  C  C326  1  0.80660000  0.81470000  0.56759000  1
  C  C327  1  0.19340000  0.81470000  0.06759000  1
  C  C328  1  0.93670000  0.81233000  0.25321000  1
  C  C329  1  0.06330000  0.81233000  0.75321000  1
  C  C330  1  0.79200000  0.80690000  0.60701000  1
  C  C331  1  0.20800000  0.80690000  0.10701000  1
  C  C332  1  0.91700000  0.80560000  0.88483000  1
  C  C333  1  0.08300000  0.80560000  0.38483000  1
  C  C334  1  0.90220000  0.80430000  0.47938000  1
  C  C335  1  0.09780000  0.80430000  0.97938000  1
  C  C336  1  0.89710000  0.79154000  0.28796000  1
  C  C337  1  0.10290000  0.79154000  0.78796000  1
  C  C338  1  0.86290000  0.78630000  0.44466000  1
  C  C339  1  0.13710000  0.78630000  0.94466000  1
  C  C340  1  0.63710000  0.71370000  0.94466000  1
  C  C341  1  0.36290000  0.71370000  0.44466000  1
  C  C342  1  0.60290000  0.70846000  0.78796000  1
  C  C343  1  0.39710000  0.70846000  0.28796000  1
  C  C344  1  0.59780000  0.69570000  0.97938000  1
  C  C345  1  0.40220000  0.69570000  0.47938000  1
  C  C346  1  0.58300000  0.69440000  0.38483000  1
  C  C347  1  0.41700000  0.69440000  0.88483000  1
  C  C348  1  0.70800000  0.69310000  0.10701000  1
  C  C349  1  0.29200000  0.69310000  0.60701000  1
  C  C350  1  0.56330000  0.68767000  0.75321000  1
  C  C351  1  0.43670000  0.68767000  0.25321000  1
  C  C352  1  0.69340000  0.68530000  0.06759000  1
  C  C353  1  0.30660000  0.68530000  0.56759000  1
  C  C354  1  0.69000000  0.67155000  0.33411000  1
  C  C355  1  0.31000000  0.67155000  0.83411000  1
  C  C356  1  0.72340000  0.66586000  0.65264000  1
  C  C357  1  0.27660000  0.66586000  0.15264000  1
  C  C358  1  0.75470000  0.66430000  0.78128000  1
  C  C359  1  0.24530000  0.66430000  0.28128000  1
  C  C360  1  0.74900000  0.66130000  0.61318000  1
  C  C361  1  0.25100000  0.66130000  0.11318000  1
  C  C362  1  0.64870000  0.65550000  0.12725000  1
  C  C363  1  0.35130000  0.65550000  0.62725000  1
  C  C364  1  0.62130000  0.65369000  0.73225000  1
  C  C365  1  0.37870000  0.65369000  0.23225000  1
  C  C366  1  0.61890000  0.64623000  0.99037000  1
  C  C367  1  0.38110000  0.64623000  0.49037000  1
  C  C368  1  0.54820000  0.64590000  0.39059000  1
  C  C369  1  0.45180000  0.64590000  0.89059000  1
  C  C370  1  0.62120000  0.64461000  0.06346000  1
  C  C371  1  0.37880000  0.64461000  0.56346000  1
  C  C372  1  0.72230000  0.64200000  0.74662000  1
  C  C373  1  0.27770000  0.64200000  0.24662000  1
  C  C374  1  0.72240000  0.64073000  0.93026000  1
  C  C375  1  0.27760000  0.64073000  0.43026000  1
  C  C376  1  0.63410000  0.63512000  0.65999000  1
  C  C377  1  0.36590000  0.63512000  0.15999000  1
  C  C378  1  0.67340000  0.62841000  0.59701000  1
  C  C379  1  0.32660000  0.62841000  0.09701000  1
  C  C380  1  0.58000000  0.62807000  0.69564000  1
  C  C381  1  0.42000000  0.62807000  0.19564000  1
  C  C382  1  0.58050000  0.62388000  0.02819000  1
  C  C383  1  0.41950000  0.62388000  0.52819000  1
  C  C384  1  0.66050000  0.62199000  0.33786000  1
  C  C385  1  0.33950000  0.62199000  0.83786000  1
  C  C386  1  0.68290000  0.61887000  0.96475000  1
  C  C387  1  0.31710000  0.61887000  0.46475000  1
  C  C388  1  0.59110000  0.60826000  0.36771000  1
  C  C389  1  0.40890000  0.60826000  0.86771000  1
  C  C390  1  0.50980000  0.59930000  0.20108000  1
  C  C391  1  0.49020000  0.59930000  0.70108000  1
  C  C392  1  0.56860000  0.59050000  0.23664000  1
  C  C393  1  0.43140000  0.59050000  0.73664000  1
  C  C394  1  0.50780000  0.58484000  0.02631000  1
  C  C395  1  0.49220000  0.58484000  0.52631000  1
  C  C396  1  0.62210000  0.56763000  0.85028000  1
  C  C397  1  0.37790000  0.56763000  0.35028000  1
  C  C398  1  0.54650000  0.56740000  0.49191000  1
  C  C399  1  0.45350000  0.56740000  0.99191000  1
  C  C400  1  0.65230000  0.56080000  0.22768000  1
  C  C401  1  0.34770000  0.56080000  0.72768000  1
  C  C402  1  0.56510000  0.55492000  0.37466000  1
  C  C403  1  0.43490000  0.55492000  0.87466000  1
  C  C404  1  0.64460000  0.55023000  0.18652000  1
  C  C405  1  0.35540000  0.55023000  0.68652000  1
  C  C406  1  0.74690000  0.54100000  0.40227000  1
  C  C407  1  0.25310000  0.54100000  0.90227000  1
  C  C408  1  0.72810000  0.54050000  0.08778000  1
  C  C409  1  0.27190000  0.54050000  0.58778000  1
  C  C410  1  0.53640000  0.53874000  0.86470000  1
  C  C411  1  0.46360000  0.53874000  0.36470000  1
  C  C412  1  0.70620000  0.53683000  0.84564000  1
  C  C413  1  0.29380000  0.53683000  0.34564000  1
  C  C414  1  0.61600000  0.53190000  0.50408000  1
  C  C415  1  0.38400000  0.53190000  0.00408000  1
  C  C416  1  0.60160000  0.52715000  0.54571000  1
  C  C417  1  0.39840000  0.52715000  0.04571000  1
  C  C418  1  0.64400000  0.52492000  0.39058000  1
  C  C419  1  0.35600000  0.52492000  0.89058000  1
  C  C420  1  0.67250000  0.51090000  0.64313000  1
  C  C421  1  0.32750000  0.51090000  0.14313000  1
  C  C422  1  0.80030000  0.50030000  0.08406000  1
  C  C423  1  0.19970000  0.50030000  0.58406000  1
  C  C424  1  0.80030000  0.49970000  0.41594000  1
  C  C425  1  0.19970000  0.49970000  0.91594000  1
  C  C426  1  0.67250000  0.48910000  0.85687000  1
  C  C427  1  0.32750000  0.48910000  0.35687000  1
  C  C428  1  0.64400000  0.47508000  0.10942000  1
  C  C429  1  0.35600000  0.47508000  0.60942000  1
  C  C430  1  0.60160000  0.47285000  0.95429000  1
  C  C431  1  0.39840000  0.47285000  0.45429000  1
  C  C432  1  0.61600000  0.46810000  0.99592000  1
  C  C433  1  0.38400000  0.46810000  0.49592000  1
  C  C434  1  0.70620000  0.46317000  0.65436000  1
  C  C435  1  0.29380000  0.46317000  0.15436000  1
  C  C436  1  0.53640000  0.46126000  0.63530000  1
  C  C437  1  0.46360000  0.46126000  0.13530000  1
  C  C438  1  0.72810000  0.45950000  0.41222000  1
  C  C439  1  0.27190000  0.45950000  0.91222000  1
  C  C440  1  0.74690000  0.45900000  0.09773000  1
  C  C441  1  0.25310000  0.45900000  0.59773000  1
  C  C442  1  0.64460000  0.44977000  0.31348000  1
  C  C443  1  0.35540000  0.44977000  0.81348000  1
  C  C444  1  0.56510000  0.44508000  0.12534000  1
  C  C445  1  0.43490000  0.44508000  0.62534000  1
  C  C446  1  0.65230000  0.43920000  0.27232000  1
  C  C447  1  0.34770000  0.43920000  0.77232000  1
  C  C448  1  0.54650000  0.43260000  0.00809000  1
  C  C449  1  0.45350000  0.43260000  0.50809000  1
  C  C450  1  0.62210000  0.43237000  0.64972000  1
  C  C451  1  0.37790000  0.43237000  0.14972000  1
  C  C452  1  0.50780000  0.41516000  0.47369000  1
  C  C453  1  0.49220000  0.41516000  0.97369000  1
  C  C454  1  0.56860000  0.40950000  0.26336000  1
  C  C455  1  0.43140000  0.40950000  0.76336000  1
  C  C456  1  0.50980000  0.40070000  0.29892000  1
  C  C457  1  0.49020000  0.40070000  0.79892000  1
  C  C458  1  0.59110000  0.39174000  0.13229000  1
  C  C459  1  0.40890000  0.39174000  0.63229000  1
  C  C460  1  0.68290000  0.38113000  0.53525000  1
  C  C461  1  0.31710000  0.38113000  0.03525000  1
  C  C462  1  0.66050000  0.37801000  0.16214000  1
  C  C463  1  0.33950000  0.37801000  0.66214000  1
  C  C464  1  0.58050000  0.37612000  0.47181000  1
  C  C465  1  0.41950000  0.37612000  0.97181000  1
  C  C466  1  0.58000000  0.37193000  0.80436000  1
  C  C467  1  0.42000000  0.37193000  0.30436000  1
  C  C468  1  0.67340000  0.37159000  0.90299000  1
  C  C469  1  0.32660000  0.37159000  0.40299000  1
  C  C470  1  0.63410000  0.36488000  0.84001000  1
  C  C471  1  0.36590000  0.36488000  0.34001000  1
  C  C472  1  0.72240000  0.35927000  0.56974000  1
  C  C473  1  0.27760000  0.35927000  0.06974000  1
  C  C474  1  0.72230000  0.35800000  0.75338000  1
  C  C475  1  0.27770000  0.35800000  0.25338000  1
  C  C476  1  0.62120000  0.35539000  0.43654000  1
  C  C477  1  0.37880000  0.35539000  0.93654000  1
  C  C478  1  0.54820000  0.35410000  0.10941000  1
  C  C479  1  0.45180000  0.35410000  0.60941000  1
  C  C480  1  0.61890000  0.35377000  0.50963000  1
  C  C481  1  0.38110000  0.35377000  0.00963000  1
  C  C482  1  0.62130000  0.34631000  0.76775000  1
  C  C483  1  0.37870000  0.34631000  0.26775000  1
  C  C484  1  0.64870000  0.34450000  0.37275000  1
  C  C485  1  0.35130000  0.34450000  0.87275000  1
  C  C486  1  0.74900000  0.33870000  0.88682000  1
  C  C487  1  0.25100000  0.33870000  0.38682000  1
  C  C488  1  0.75470000  0.33570000  0.71872000  1
  C  C489  1  0.24530000  0.33570000  0.21872000  1
  C  C490  1  0.72340000  0.33414000  0.84736000  1
  C  C491  1  0.27660000  0.33414000  0.34736000  1
  C  C492  1  0.69000000  0.32845000  0.16589000  1
  C  C493  1  0.31000000  0.32845000  0.66589000  1
  C  C494  1  0.69340000  0.31470000  0.43241000  1
  C  C495  1  0.30660000  0.31470000  0.93241000  1
  C  C496  1  0.56330000  0.31233000  0.74679000  1
  C  C497  1  0.43670000  0.31233000  0.24679000  1
  C  C498  1  0.70800000  0.30690000  0.39299000  1
  C  C499  1  0.29200000  0.30690000  0.89299000  1
  C  C500  1  0.58300000  0.30560000  0.11517000  1
  C  C501  1  0.41700000  0.30560000  0.61517000  1
  C  C502  1  0.59780000  0.30430000  0.52062000  1
  C  C503  1  0.40220000  0.30430000  0.02062000  1
  C  C504  1  0.60290000  0.29154000  0.71204000  1
  C  C505  1  0.39710000  0.29154000  0.21204000  1
  C  C506  1  0.63710000  0.28630000  0.55534000  1
  C  C507  1  0.36290000  0.28630000  0.05534000  1
  C  C508  1  0.86290000  0.21370000  0.05534000  1
  C  C509  1  0.13710000  0.21370000  0.55534000  1
  C  C510  1  0.89710000  0.20846000  0.21204000  1
  C  C511  1  0.10290000  0.20846000  0.71204000  1
  C  C512  1  0.90220000  0.19570000  0.02062000  1
  C  C513  1  0.09780000  0.19570000  0.52062000  1
  C  C514  1  0.91700000  0.19440000  0.61517000  1
  C  C515  1  0.08300000  0.19440000  0.11517000  1
  C  C516  1  0.79200000  0.19310000  0.89299000  1
  C  C517  1  0.20800000  0.19310000  0.39299000  1
  C  C518  1  0.93670000  0.18767000  0.24679000  1
  C  C519  1  0.06330000  0.18767000  0.74679000  1
  C  C520  1  0.80660000  0.18530000  0.93241000  1
  C  C521  1  0.19340000  0.18530000  0.43241000  1
  C  C522  1  0.81000000  0.17155000  0.66589000  1
  C  C523  1  0.19000000  0.17155000  0.16589000  1
  C  C524  1  0.77660000  0.16586000  0.34736000  1
  C  C525  1  0.22340000  0.16586000  0.84736000  1
  C  C526  1  0.74530000  0.16430000  0.21872000  1
  C  C527  1  0.25470000  0.16430000  0.71872000  1
  C  C528  1  0.75100000  0.16130000  0.38682000  1
  C  C529  1  0.24900000  0.16130000  0.88682000  1
  C  C530  1  0.85130000  0.15550000  0.87275000  1
  C  C531  1  0.14870000  0.15550000  0.37275000  1
  C  C532  1  0.87870000  0.15369000  0.26775000  1
  C  C533  1  0.12130000  0.15369000  0.76775000  1
  C  C534  1  0.88110000  0.14623000  0.00963000  1
  C  C535  1  0.11890000  0.14623000  0.50963000  1
  C  C536  1  0.95180000  0.14590000  0.60941000  1
  C  C537  1  0.04820000  0.14590000  0.10941000  1
  C  C538  1  0.87880000  0.14461000  0.93654000  1
  C  C539  1  0.12120000  0.14461000  0.43654000  1
  C  C540  1  0.77770000  0.14200000  0.25338000  1
  C  C541  1  0.22230000  0.14200000  0.75338000  1
  C  C542  1  0.77760000  0.14073000  0.06974000  1
  C  C543  1  0.22240000  0.14073000  0.56974000  1
  C  C544  1  0.86590000  0.13512000  0.34001000  1
  C  C545  1  0.13410000  0.13512000  0.84001000  1
  C  C546  1  0.82660000  0.12841000  0.40299000  1
  C  C547  1  0.17340000  0.12841000  0.90299000  1
  C  C548  1  0.92000000  0.12807000  0.30436000  1
  C  C549  1  0.08000000  0.12807000  0.80436000  1
  C  C550  1  0.91950000  0.12388000  0.97181000  1
  C  C551  1  0.08050000  0.12388000  0.47181000  1
  C  C552  1  0.83950000  0.12199000  0.66214000  1
  C  C553  1  0.16050000  0.12199000  0.16214000  1
  C  C554  1  0.81710000  0.11887000  0.03525000  1
  C  C555  1  0.18290000  0.11887000  0.53525000  1
  C  C556  1  0.90890000  0.10826000  0.63229000  1
  C  C557  1  0.09110000  0.10826000  0.13229000  1
  C  C558  1  0.99020000  0.09930000  0.79892000  1
  C  C559  1  0.00980000  0.09930000  0.29892000  1
  C  C560  1  0.93140000  0.09050000  0.76336000  1
  C  C561  1  0.06860000  0.09050000  0.26336000  1
  C  C562  1  0.99220000  0.08484000  0.97369000  1
  C  C563  1  0.00780000  0.08484000  0.47369000  1
  C  C564  1  0.87790000  0.06763000  0.14972000  1
  C  C565  1  0.12210000  0.06763000  0.64972000  1
  C  C566  1  0.95350000  0.06740000  0.50809000  1
  C  C567  1  0.04650000  0.06740000  0.00809000  1
  C  C568  1  0.84770000  0.06080000  0.77232000  1
  C  C569  1  0.15230000  0.06080000  0.27232000  1
  C  C570  1  0.93490000  0.05492000  0.62534000  1
  C  C571  1  0.06510000  0.05492000  0.12534000  1
  C  C572  1  0.85540000  0.05023000  0.81348000  1
  C  C573  1  0.14460000  0.05023000  0.31348000  1
  C  C574  1  0.75310000  0.04100000  0.59773000  1
  C  C575  1  0.24690000  0.04100000  0.09773000  1
  C  C576  1  0.77190000  0.04050000  0.91222000  1
  C  C577  1  0.22810000  0.04050000  0.41222000  1
  C  C578  1  0.96360000  0.03874000  0.13530000  1
  C  C579  1  0.03640000  0.03874000  0.63530000  1
  C  C580  1  0.79380000  0.03683000  0.15436000  1
  C  C581  1  0.20620000  0.03683000  0.65436000  1
  C  C582  1  0.88400000  0.03190000  0.49592000  1
  C  C583  1  0.11600000  0.03190000  0.99592000  1
  C  C584  1  0.89840000  0.02715000  0.45429000  1
  C  C585  1  0.10160000  0.02715000  0.95429000  1
  C  C586  1  0.85600000  0.02492000  0.60942000  1
  C  C587  1  0.14400000  0.02492000  0.10942000  1
  C  C588  1  0.82750000  0.01090000  0.35687000  1
  C  C589  1  0.17250000  0.01090000  0.85687000  1
  C  C590  1  0.69970000  0.00030000  0.91594000  1
  C  C591  1  0.30030000  0.00030000  0.41594000  1
  N  N592  1  0.92880000  0.98913000  0.13123000  1
  N  N593  1  0.07120000  0.98913000  0.63123000  1
  N  N594  1  0.86360000  0.97365000  0.60283000  1
  N  N595  1  0.13640000  0.97365000  0.10283000  1
  N  N596  1  0.97100000  0.94088000  0.05941000  1
  N  N597  1  0.02900000  0.94088000  0.55941000  1
  N  N598  1  0.94020000  0.92683000  0.67028000  1
  N  N599  1  0.05980000  0.92683000  0.17028000  1
  N  N600  1  0.89410000  0.88737000  0.12398000  1
  N  N601  1  0.10590000  0.88737000  0.62398000  1
  N  N602  1  0.90420000  0.87260000  0.60146000  1
  N  N603  1  0.09580000  0.87260000  0.10146000  1
  N  N604  1  0.80020000  0.81271000  0.42020000  1
  N  N605  1  0.19980000  0.81271000  0.92020000  1
  N  N606  1  0.80270000  0.80343000  0.30208000  1
  N  N607  1  0.19730000  0.80343000  0.80208000  1
  N  N608  1  0.84560000  0.79259000  0.85757000  1
  N  N609  1  0.15440000  0.79259000  0.35757000  1
  N  N610  1  0.65440000  0.70741000  0.35757000  1
  N  N611  1  0.34560000  0.70741000  0.85757000  1
  N  N612  1  0.69730000  0.69657000  0.80208000  1
  N  N613  1  0.30270000  0.69657000  0.30208000  1
  N  N614  1  0.69980000  0.68729000  0.92020000  1
  N  N615  1  0.30020000  0.68729000  0.42020000  1
  N  N616  1  0.59580000  0.62740000  0.10146000  1
  N  N617  1  0.40420000  0.62740000  0.60146000  1
  N  N618  1  0.60590000  0.61263000  0.62398000  1
  N  N619  1  0.39410000  0.61263000  0.12398000  1
  N  N620  1  0.55980000  0.57317000  0.17028000  1
  N  N621  1  0.44020000  0.57317000  0.67028000  1
  N  N622  1  0.52900000  0.55912000  0.55941000  1
  N  N623  1  0.47100000  0.55912000  0.05941000  1
  N  N624  1  0.63640000  0.52635000  0.10283000  1
  N  N625  1  0.36360000  0.52635000  0.60283000  1
  N  N626  1  0.57120000  0.51087000  0.63123000  1
  N  N627  1  0.42880000  0.51087000  0.13123000  1
  N  N628  1  0.57120000  0.48913000  0.86877000  1
  N  N629  1  0.42880000  0.48913000  0.36877000  1
  N  N630  1  0.63640000  0.47365000  0.39717000  1
  N  N631  1  0.36360000  0.47365000  0.89717000  1
  N  N632  1  0.52900000  0.44088000  0.94059000  1
  N  N633  1  0.47100000  0.44088000  0.44059000  1
  N  N634  1  0.55980000  0.42683000  0.32972000  1
  N  N635  1  0.44020000  0.42683000  0.82972000  1
  N  N636  1  0.60590000  0.38737000  0.87602000  1
  N  N637  1  0.39410000  0.38737000  0.37602000  1
  N  N638  1  0.59580000  0.37260000  0.39854000  1
  N  N639  1  0.40420000  0.37260000  0.89854000  1
  N  N640  1  0.69980000  0.31271000  0.57980000  1
  N  N641  1  0.30020000  0.31271000  0.07980000  1
  N  N642  1  0.69730000  0.30343000  0.69792000  1
  N  N643  1  0.30270000  0.30343000  0.19792000  1
  N  N644  1  0.65440000  0.29259000  0.14243000  1
  N  N645  1  0.34560000  0.29259000  0.64243000  1
  N  N646  1  0.84560000  0.20741000  0.64243000  1
  N  N647  1  0.15440000  0.20741000  0.14243000  1
  N  N648  1  0.80270000  0.19657000  0.19792000  1
  N  N649  1  0.19730000  0.19657000  0.69792000  1
  N  N650  1  0.80020000  0.18729000  0.07980000  1
  N  N651  1  0.19980000  0.18729000  0.57980000  1
  N  N652  1  0.90420000  0.12740000  0.89854000  1
  N  N653  1  0.09580000  0.12740000  0.39854000  1
  N  N654  1  0.89410000  0.11263000  0.37602000  1
  N  N655  1  0.10590000  0.11263000  0.87602000  1
  N  N656  1  0.94020000  0.07317000  0.82972000  1
  N  N657  1  0.05980000  0.07317000  0.32972000  1
  N  N658  1  0.97100000  0.05912000  0.44059000  1
  N  N659  1  0.02900000  0.05912000  0.94059000  1
  N  N660  1  0.86360000  0.02635000  0.89717000  1
  N  N661  1  0.13640000  0.02635000  0.39717000  1
  N  N662  1  0.92880000  0.01087000  0.36877000  1
  N  N663  1  0.07120000  0.01087000  0.86877000  1
