# generated using pymatgen
data_LaH2C12Cl6O7
_symmetry_space_group_name_H-M   'P 1'
_cell_length_a   10.10710000
_cell_length_b   13.08940000
_cell_length_c   13.66960000
_cell_angle_alpha   97.07400000
_cell_angle_beta   109.84300000
_cell_angle_gamma   95.59600000
_symmetry_Int_Tables_number   1
_chemical_formula_structural   LaH2C12Cl6O7
_chemical_formula_sum   'La2 H4 C24 Cl12 O14'
_cell_volume   1669.20306202
_cell_formula_units_Z   2
loop_
 _symmetry_equiv_pos_site_id
 _symmetry_equiv_pos_as_xyz
  1  'x, y, z'
loop_
 _atom_site_type_symbol
 _atom_site_label
 _atom_site_symmetry_multiplicity
 _atom_site_fract_x
 _atom_site_fract_y
 _atom_site_fract_z
 _atom_site_occupancy
  La  La0  1  0.03628000  0.11963000  0.13967000  1
  La  La1  1  0.96372000  0.88037000  0.86033000  1
  H  H2  1  0.00790000  0.10740000  0.81690000  1
  H  H3  1  0.02260000  0.02470000  0.74430000  1
  H  H4  1  0.97740000  0.97530000  0.25570000  1
  H  H5  1  0.99210000  0.89260000  0.18310000  1
  C  C6  1  0.00040000  0.72130000  0.06290000  1
  C  C7  1  0.00100000  0.39310000  0.97240000  1
  C  C8  1  0.12650000  0.45980000  0.02000000  1
  C  C9  1  0.12870000  0.56640000  0.04830000  1
  C  C10  1  0.22160000  0.05750000  0.38620000  1
  C  C11  1  0.26640000  0.06840000  0.05760000  1
  C  C12  1  0.36620000  0.02860000  0.44630000  1
  C  C13  1  0.38700000  0.03340000  0.02710000  1
  C  C14  1  0.39350000  0.92720000  0.42420000  1
  C  C15  1  0.43150000  0.07860000  0.95430000  1
  C  C16  1  0.45900000  0.95630000  0.07450000  1
  C  C17  1  0.47490000  0.10040000  0.52350000  1
  C  C18  1  0.52510000  0.89960000  0.47650000  1
  C  C19  1  0.54100000  0.04370000  0.92550000  1
  C  C20  1  0.56850000  0.92140000  0.04570000  1
  C  C21  1  0.60650000  0.07280000  0.57580000  1
  C  C22  1  0.61300000  0.96660000  0.97290000  1
  C  C23  1  0.63380000  0.97140000  0.55370000  1
  C  C24  1  0.73360000  0.93160000  0.94240000  1
  C  C25  1  0.77840000  0.94250000  0.61380000  1
  C  C26  1  0.87130000  0.43360000  0.95170000  1
  C  C27  1  0.87350000  0.54020000  0.98000000  1
  C  C28  1  0.99900000  0.60690000  0.02760000  1
  C  C29  1  0.99960000  0.27870000  0.93710000  1
  Cl  Cl30  1  0.26150000  0.83618000  0.33312000  1
  Cl  Cl31  1  0.28370000  0.40952000  0.04438000  1
  Cl  Cl32  1  0.28651000  0.64882000  0.10757000  1
  Cl  Cl33  1  0.35233000  0.17975000  0.90208000  1
  Cl  Cl34  1  0.40864000  0.90574000  0.16881000  1
  Cl  Cl35  1  0.43827000  0.22433000  0.55303000  1
  Cl  Cl36  1  0.56173000  0.77567000  0.44697000  1
  Cl  Cl37  1  0.59136000  0.09426000  0.83119000  1
  Cl  Cl38  1  0.64767000  0.82025000  0.09792000  1
  Cl  Cl39  1  0.71349000  0.35118000  0.89243000  1
  Cl  Cl40  1  0.71630000  0.59048000  0.95562000  1
  Cl  Cl41  1  0.73850000  0.16382000  0.66688000  1
  O  O42  1  0.01530000  0.25430000  0.85150000  1
  O  O43  1  0.01600000  0.78320000  0.00260000  1
  O  O44  1  0.02590000  0.04870000  0.80360000  1
  O  O45  1  0.12180000  0.02600000  0.41210000  1
  O  O46  1  0.14690000  0.00900000  0.01940000  1
  O  O47  1  0.21820000  0.10780000  0.31290000  1
  O  O48  1  0.28780000  0.15080000  0.12050000  1
  O  O49  1  0.71220000  0.84920000  0.87950000  1
  O  O50  1  0.78180000  0.89220000  0.68710000  1
  O  O51  1  0.85310000  0.99100000  0.98060000  1
  O  O52  1  0.87820000  0.97400000  0.58790000  1
  O  O53  1  0.97410000  0.95130000  0.19640000  1
  O  O54  1  0.98400000  0.21680000  0.99740000  1
  O  O55  1  0.98470000  0.74570000  0.14850000  1
