# generated using pymatgen
data_Cd3H20C30N25O
_symmetry_space_group_name_H-M   'P 1'
_cell_length_a   14.04400000
_cell_length_b   20.29700000
_cell_length_c   23.63500000
_cell_angle_alpha   90.00000000
_cell_angle_beta   90.00000000
_cell_angle_gamma   90.00000000
_symmetry_Int_Tables_number   1
_chemical_formula_structural   Cd3H20C30N25O
_chemical_formula_sum   'Cd12 H80 C120 N100 O4'
_cell_volume   6737.18199218
_cell_formula_units_Z   4
loop_
 _symmetry_equiv_pos_site_id
 _symmetry_equiv_pos_as_xyz
  1  'x, y, z'
loop_
 _atom_site_type_symbol
 _atom_site_label
 _atom_site_symmetry_multiplicity
 _atom_site_fract_x
 _atom_site_fract_y
 _atom_site_fract_z
 _atom_site_occupancy
  Cd  Cd0  1  0.10001000  0.23070000  0.33136000  1
  Cd  Cd1  1  0.10001000  0.26930000  0.16864000  1
  Cd  Cd2  1  0.15567000  0.75000000  0.25000000  1
  Cd  Cd3  1  0.34433000  0.25000000  0.25000000  1
  Cd  Cd4  1  0.39999000  0.73070000  0.16864000  1
  Cd  Cd5  1  0.39999000  0.76930000  0.33136000  1
  Cd  Cd6  1  0.60001000  0.23070000  0.66864000  1
  Cd  Cd7  1  0.60001000  0.26930000  0.83136000  1
  Cd  Cd8  1  0.65567000  0.75000000  0.75000000  1
  Cd  Cd9  1  0.84433000  0.25000000  0.75000000  1
  Cd  Cd10  1  0.89999000  0.73070000  0.83136000  1
  Cd  Cd11  1  0.89999000  0.76930000  0.66864000  1
  H  H12  1  0.02990000  0.22530000  0.82980000  1
  H  H13  1  0.02990000  0.27470000  0.67020000  1
  H  H14  1  0.04360000  0.22340000  0.55020000  1
  H  H15  1  0.04360000  0.27660000  0.94980000  1
  H  H16  1  0.09230000  0.67080000  0.88530000  1
  H  H17  1  0.09230000  0.82920000  0.61470000  1
  H  H18  1  0.12070000  0.23720000  0.46720000  1
  H  H19  1  0.12070000  0.26280000  0.03280000  1
  H  H20  1  0.12680000  0.00460000  0.25720000  1
  H  H21  1  0.12680000  0.49540000  0.24280000  1
  H  H22  1  0.13120000  0.60040000  0.21620000  1
  H  H23  1  0.13120000  0.89960000  0.28380000  1
  H  H24  1  0.13450000  0.55810000  0.40460000  1
  H  H25  1  0.13450000  0.94190000  0.09540000  1
  H  H26  1  0.14910000  0.66420000  0.36980000  1
  H  H27  1  0.14910000  0.83580000  0.13020000  1
  H  H28  1  0.18420000  0.66090000  0.96630000  1
  H  H29  1  0.18420000  0.83910000  0.53370000  1
  H  H30  1  0.18990000  0.22570000  0.83190000  1
  H  H31  1  0.18990000  0.27430000  0.66810000  1
  H  H32  1  0.31010000  0.72570000  0.66810000  1
  H  H33  1  0.31010000  0.77430000  0.83190000  1
  H  H34  1  0.31580000  0.16090000  0.53370000  1
  H  H35  1  0.31580000  0.33910000  0.96630000  1
  H  H36  1  0.35090000  0.16420000  0.13020000  1
  H  H37  1  0.35090000  0.33580000  0.36980000  1
  H  H38  1  0.36550000  0.05810000  0.09540000  1
  H  H39  1  0.36550000  0.44190000  0.40460000  1
  H  H40  1  0.36880000  0.10040000  0.28380000  1
  H  H41  1  0.36880000  0.39960000  0.21620000  1
  H  H42  1  0.37320000  0.50460000  0.24280000  1
  H  H43  1  0.37320000  0.99540000  0.25720000  1
  H  H44  1  0.37930000  0.73720000  0.03280000  1
  H  H45  1  0.37930000  0.76280000  0.46720000  1
  H  H46  1  0.40770000  0.17080000  0.61470000  1
  H  H47  1  0.40770000  0.32920000  0.88530000  1
  H  H48  1  0.45640000  0.72340000  0.94980000  1
  H  H49  1  0.45640000  0.77660000  0.55020000  1
  H  H50  1  0.47010000  0.72530000  0.67020000  1
  H  H51  1  0.47010000  0.77470000  0.82980000  1
  H  H52  1  0.52990000  0.22530000  0.17020000  1
  H  H53  1  0.52990000  0.27470000  0.32980000  1
  H  H54  1  0.54360000  0.22340000  0.44980000  1
  H  H55  1  0.54360000  0.27660000  0.05020000  1
  H  H56  1  0.59230000  0.67080000  0.11470000  1
  H  H57  1  0.59230000  0.82920000  0.38530000  1
  H  H58  1  0.62070000  0.23720000  0.53280000  1
  H  H59  1  0.62070000  0.26280000  0.96720000  1
  H  H60  1  0.62680000  0.00460000  0.74280000  1
  H  H61  1  0.62680000  0.49540000  0.75720000  1
  H  H62  1  0.63120000  0.60040000  0.78380000  1
  H  H63  1  0.63120000  0.89960000  0.71620000  1
  H  H64  1  0.63450000  0.55810000  0.59540000  1
  H  H65  1  0.63450000  0.94190000  0.90460000  1
  H  H66  1  0.64910000  0.66420000  0.63020000  1
  H  H67  1  0.64910000  0.83580000  0.86980000  1
  H  H68  1  0.68420000  0.66090000  0.03370000  1
  H  H69  1  0.68420000  0.83910000  0.46630000  1
  H  H70  1  0.68990000  0.22570000  0.16810000  1
  H  H71  1  0.68990000  0.27430000  0.33190000  1
  H  H72  1  0.81010000  0.72570000  0.33190000  1
  H  H73  1  0.81010000  0.77430000  0.16810000  1
  H  H74  1  0.81580000  0.16090000  0.46630000  1
  H  H75  1  0.81580000  0.33910000  0.03370000  1
  H  H76  1  0.85090000  0.16420000  0.86980000  1
  H  H77  1  0.85090000  0.33580000  0.63020000  1
  H  H78  1  0.86550000  0.05810000  0.90460000  1
  H  H79  1  0.86550000  0.44190000  0.59540000  1
  H  H80  1  0.86880000  0.10040000  0.71620000  1
  H  H81  1  0.86880000  0.39960000  0.78380000  1
  H  H82  1  0.87320000  0.50460000  0.75720000  1
  H  H83  1  0.87320000  0.99540000  0.74280000  1
  H  H84  1  0.87930000  0.73720000  0.96720000  1
  H  H85  1  0.87930000  0.76280000  0.53280000  1
  H  H86  1  0.90770000  0.17080000  0.38530000  1
  H  H87  1  0.90770000  0.32920000  0.11470000  1
  H  H88  1  0.95640000  0.72340000  0.05020000  1
  H  H89  1  0.95640000  0.77660000  0.44980000  1
  H  H90  1  0.97010000  0.72530000  0.32980000  1
  H  H91  1  0.97010000  0.77470000  0.17020000  1
  C  C92  1  0.01210000  0.21430000  0.51650000  1
  C  C93  1  0.01210000  0.28570000  0.98350000  1
  C  C94  1  0.05900000  0.22060000  0.46670000  1
  C  C95  1  0.05900000  0.27940000  0.03330000  1
  C  C96  1  0.06300000  0.23560000  0.79690000  1
  C  C97  1  0.06300000  0.26440000  0.70310000  1
  C  C98  1  0.06460000  0.68320000  0.91950000  1
  C  C99  1  0.06460000  0.81680000  0.58050000  1
  C  C100  1  0.08070000  0.69470000  0.01790000  1
  C  C101  1  0.08070000  0.80530000  0.48210000  1
  C  C102  1  0.11890000  0.05520000  0.15010000  1
  C  C103  1  0.11890000  0.44480000  0.34990000  1
  C  C104  1  0.12210000  0.67660000  0.96810000  1
  C  C105  1  0.12210000  0.82340000  0.53190000  1
  C  C106  1  0.12580000  0.51290000  0.32870000  1
  C  C107  1  0.12580000  0.98710000  0.17130000  1
  C  C108  1  0.12880000  0.52850000  0.27000000  1
  C  C109  1  0.12880000  0.97150000  0.23000000  1
  C  C110  1  0.13400000  0.69640000  0.06950000  1
  C  C111  1  0.13400000  0.80360000  0.43050000  1
  C  C112  1  0.13460000  0.56530000  0.36580000  1
  C  C113  1  0.13460000  0.59160000  0.25470000  1
  C  C114  1  0.13460000  0.90840000  0.24530000  1
  C  C115  1  0.13460000  0.93470000  0.13420000  1
  C  C116  1  0.14360000  0.62950000  0.34430000  1
  C  C117  1  0.14360000  0.87050000  0.15570000  1
  C  C118  1  0.15940000  0.23560000  0.79800000  1
  C  C119  1  0.15940000  0.26440000  0.70200000  1
  C  C120  1  0.18040000  0.75000000  0.75000000  1
  C  C121  1  0.21610000  0.25000000  0.75000000  1
  C  C122  1  0.28390000  0.75000000  0.75000000  1
  C  C123  1  0.31960000  0.25000000  0.75000000  1
  C  C124  1  0.34060000  0.73560000  0.70200000  1
  C  C125  1  0.34060000  0.76440000  0.79800000  1
  C  C126  1  0.35640000  0.12950000  0.15570000  1
  C  C127  1  0.35640000  0.37050000  0.34430000  1
  C  C128  1  0.36540000  0.06530000  0.13420000  1
  C  C129  1  0.36540000  0.09160000  0.24530000  1
  C  C130  1  0.36540000  0.40840000  0.25470000  1
  C  C131  1  0.36540000  0.43470000  0.36580000  1
  C  C132  1  0.36600000  0.19640000  0.43050000  1
  C  C133  1  0.36600000  0.30360000  0.06950000  1
  C  C134  1  0.37120000  0.02850000  0.23000000  1
  C  C135  1  0.37120000  0.47150000  0.27000000  1
  C  C136  1  0.37420000  0.01290000  0.17130000  1
  C  C137  1  0.37420000  0.48710000  0.32870000  1
  C  C138  1  0.37790000  0.17660000  0.53190000  1
  C  C139  1  0.37790000  0.32340000  0.96810000  1
  C  C140  1  0.38110000  0.55520000  0.34990000  1
  C  C141  1  0.38110000  0.94480000  0.15010000  1
  C  C142  1  0.41930000  0.19470000  0.48210000  1
  C  C143  1  0.41930000  0.30530000  0.01790000  1
  C  C144  1  0.43540000  0.18320000  0.58050000  1
  C  C145  1  0.43540000  0.31680000  0.91950000  1
  C  C146  1  0.43700000  0.73560000  0.70310000  1
  C  C147  1  0.43700000  0.76440000  0.79690000  1
  C  C148  1  0.44100000  0.72060000  0.03330000  1
  C  C149  1  0.44100000  0.77940000  0.46670000  1
  C  C150  1  0.48790000  0.71430000  0.98350000  1
  C  C151  1  0.48790000  0.78570000  0.51650000  1
  C  C152  1  0.51210000  0.21430000  0.48350000  1
  C  C153  1  0.51210000  0.28570000  0.01650000  1
  C  C154  1  0.55900000  0.22060000  0.53330000  1
  C  C155  1  0.55900000  0.27940000  0.96670000  1
  C  C156  1  0.56300000  0.23560000  0.20310000  1
  C  C157  1  0.56300000  0.26440000  0.29690000  1
  C  C158  1  0.56460000  0.68320000  0.08050000  1
  C  C159  1  0.56460000  0.81680000  0.41950000  1
  C  C160  1  0.58070000  0.69470000  0.98210000  1
  C  C161  1  0.58070000  0.80530000  0.51790000  1
  C  C162  1  0.61890000  0.05520000  0.84990000  1
  C  C163  1  0.61890000  0.44480000  0.65010000  1
  C  C164  1  0.62210000  0.67660000  0.03190000  1
  C  C165  1  0.62210000  0.82340000  0.46810000  1
  C  C166  1  0.62580000  0.51290000  0.67130000  1
  C  C167  1  0.62580000  0.98710000  0.82870000  1
  C  C168  1  0.62880000  0.52850000  0.73000000  1
  C  C169  1  0.62880000  0.97150000  0.77000000  1
  C  C170  1  0.63400000  0.69640000  0.93050000  1
  C  C171  1  0.63400000  0.80360000  0.56950000  1
  C  C172  1  0.63460000  0.56530000  0.63420000  1
  C  C173  1  0.63460000  0.59160000  0.74530000  1
  C  C174  1  0.63460000  0.90840000  0.75470000  1
  C  C175  1  0.63460000  0.93470000  0.86580000  1
  C  C176  1  0.64360000  0.62950000  0.65570000  1
  C  C177  1  0.64360000  0.87050000  0.84430000  1
  C  C178  1  0.65940000  0.23560000  0.20200000  1
  C  C179  1  0.65940000  0.26440000  0.29800000  1
  C  C180  1  0.68040000  0.75000000  0.25000000  1
  C  C181  1  0.71610000  0.25000000  0.25000000  1
  C  C182  1  0.78390000  0.75000000  0.25000000  1
  C  C183  1  0.81960000  0.25000000  0.25000000  1
  C  C184  1  0.84060000  0.73560000  0.29800000  1
  C  C185  1  0.84060000  0.76440000  0.20200000  1
  C  C186  1  0.85640000  0.12950000  0.84430000  1
  C  C187  1  0.85640000  0.37050000  0.65570000  1
  C  C188  1  0.86540000  0.06530000  0.86580000  1
  C  C189  1  0.86540000  0.09160000  0.75470000  1
  C  C190  1  0.86540000  0.40840000  0.74530000  1
  C  C191  1  0.86540000  0.43470000  0.63420000  1
  C  C192  1  0.86600000  0.19640000  0.56950000  1
  C  C193  1  0.86600000  0.30360000  0.93050000  1
  C  C194  1  0.87120000  0.02850000  0.77000000  1
  C  C195  1  0.87120000  0.47150000  0.73000000  1
  C  C196  1  0.87420000  0.01290000  0.82870000  1
  C  C197  1  0.87420000  0.48710000  0.67130000  1
  C  C198  1  0.87790000  0.17660000  0.46810000  1
  C  C199  1  0.87790000  0.32340000  0.03190000  1
  C  C200  1  0.88110000  0.55520000  0.65010000  1
  C  C201  1  0.88110000  0.94480000  0.84990000  1
  C  C202  1  0.91930000  0.19470000  0.51790000  1
  C  C203  1  0.91930000  0.30530000  0.98210000  1
  C  C204  1  0.93540000  0.18320000  0.41950000  1
  C  C205  1  0.93540000  0.31680000  0.08050000  1
  C  C206  1  0.93700000  0.73560000  0.29690000  1
  C  C207  1  0.93700000  0.76440000  0.20310000  1
  C  C208  1  0.94100000  0.72060000  0.96670000  1
  C  C209  1  0.94100000  0.77940000  0.53330000  1
  C  C210  1  0.98790000  0.71430000  0.01650000  1
  C  C211  1  0.98790000  0.78570000  0.48350000  1
  N  N212  1  0.01390000  0.25000000  0.75000000  1
  N  N213  1  0.02040000  0.20400000  0.41680000  1
  N  N214  1  0.02040000  0.29600000  0.08320000  1
  N  N215  1  0.03920000  0.74750000  0.72070000  1
  N  N216  1  0.03920000  0.75250000  0.77930000  1
  N  N217  1  0.09380000  0.70390000  0.12180000  1
  N  N218  1  0.09380000  0.79610000  0.37820000  1
  N  N219  1  0.11300000  0.15730000  0.14350000  1
  N  N220  1  0.11300000  0.34270000  0.35650000  1
  N  N221  1  0.11540000  0.10900000  0.18190000  1
  N  N222  1  0.11540000  0.39100000  0.31810000  1
  N  N223  1  0.11860000  0.13610000  0.09290000  1
  N  N224  1  0.11860000  0.36390000  0.40710000  1
  N  N225  1  0.12510000  0.07130000  0.09590000  1
  N  N226  1  0.12510000  0.42870000  0.40410000  1
  N  N227  1  0.12750000  0.74940000  0.79730000  1
  N  N228  1  0.12750000  0.75060000  0.70270000  1
  N  N229  1  0.14470000  0.64330000  0.28860000  1
  N  N230  1  0.14470000  0.85670000  0.21140000  1
  N  N231  1  0.16750000  0.70720000  0.15680000  1
  N  N232  1  0.16750000  0.79280000  0.34320000  1
  N  N233  1  0.22940000  0.69380000  0.07370000  1
  N  N234  1  0.22940000  0.80620000  0.42630000  1
  N  N235  1  0.24960000  0.20230000  0.37190000  1
  N  N236  1  0.24960000  0.29770000  0.12810000  1
  N  N237  1  0.25040000  0.70230000  0.12810000  1
  N  N238  1  0.25040000  0.79770000  0.37190000  1
  N  N239  1  0.27060000  0.19380000  0.42630000  1
  N  N240  1  0.27060000  0.30620000  0.07370000  1
  N  N241  1  0.33250000  0.20720000  0.34320000  1
  N  N242  1  0.33250000  0.29280000  0.15680000  1
  N  N243  1  0.35530000  0.14330000  0.21140000  1
  N  N244  1  0.35530000  0.35670000  0.28860000  1
  N  N245  1  0.37250000  0.24940000  0.70270000  1
  N  N246  1  0.37250000  0.25060000  0.79730000  1
  N  N247  1  0.37490000  0.57130000  0.40410000  1
  N  N248  1  0.37490000  0.92870000  0.09590000  1
  N  N249  1  0.38140000  0.63610000  0.40710000  1
  N  N250  1  0.38140000  0.86390000  0.09290000  1
  N  N251  1  0.38460000  0.60900000  0.31810000  1
  N  N252  1  0.38460000  0.89100000  0.18190000  1
  N  N253  1  0.38700000  0.65730000  0.35650000  1
  N  N254  1  0.38700000  0.84270000  0.14350000  1
  N  N255  1  0.40620000  0.20390000  0.37820000  1
  N  N256  1  0.40620000  0.29610000  0.12180000  1
  N  N257  1  0.46080000  0.24750000  0.77930000  1
  N  N258  1  0.46080000  0.25250000  0.72070000  1
  N  N259  1  0.47960000  0.70400000  0.08320000  1
  N  N260  1  0.47960000  0.79600000  0.41680000  1
  N  N261  1  0.48610000  0.75000000  0.75000000  1
  N  N262  1  0.51390000  0.25000000  0.25000000  1
  N  N263  1  0.52040000  0.20400000  0.58320000  1
  N  N264  1  0.52040000  0.29600000  0.91680000  1
  N  N265  1  0.53920000  0.74750000  0.27930000  1
  N  N266  1  0.53920000  0.75250000  0.22070000  1
  N  N267  1  0.59380000  0.70390000  0.87820000  1
  N  N268  1  0.59380000  0.79610000  0.62180000  1
  N  N269  1  0.61300000  0.15730000  0.85650000  1
  N  N270  1  0.61300000  0.34270000  0.64350000  1
  N  N271  1  0.61540000  0.10900000  0.81810000  1
  N  N272  1  0.61540000  0.39100000  0.68190000  1
  N  N273  1  0.61860000  0.13610000  0.90710000  1
  N  N274  1  0.61860000  0.36390000  0.59290000  1
  N  N275  1  0.62510000  0.07130000  0.90410000  1
  N  N276  1  0.62510000  0.42870000  0.59590000  1
  N  N277  1  0.62750000  0.74940000  0.20270000  1
  N  N278  1  0.62750000  0.75060000  0.29730000  1
  N  N279  1  0.64470000  0.64330000  0.71140000  1
  N  N280  1  0.64470000  0.85670000  0.78860000  1
  N  N281  1  0.66750000  0.70720000  0.84320000  1
  N  N282  1  0.66750000  0.79280000  0.65680000  1
  N  N283  1  0.72940000  0.69380000  0.92630000  1
  N  N284  1  0.72940000  0.80620000  0.57370000  1
  N  N285  1  0.74960000  0.20230000  0.62810000  1
  N  N286  1  0.74960000  0.29770000  0.87190000  1
  N  N287  1  0.75040000  0.70230000  0.87190000  1
  N  N288  1  0.75040000  0.79770000  0.62810000  1
  N  N289  1  0.77060000  0.19380000  0.57370000  1
  N  N290  1  0.77060000  0.30620000  0.92630000  1
  N  N291  1  0.83250000  0.20720000  0.65680000  1
  N  N292  1  0.83250000  0.29280000  0.84320000  1
  N  N293  1  0.85530000  0.14330000  0.78860000  1
  N  N294  1  0.85530000  0.35670000  0.71140000  1
  N  N295  1  0.87250000  0.24940000  0.29730000  1
  N  N296  1  0.87250000  0.25060000  0.20270000  1
  N  N297  1  0.87490000  0.57130000  0.59590000  1
  N  N298  1  0.87490000  0.92870000  0.90410000  1
  N  N299  1  0.88140000  0.63610000  0.59290000  1
  N  N300  1  0.88140000  0.86390000  0.90710000  1
  N  N301  1  0.88460000  0.60900000  0.68190000  1
  N  N302  1  0.88460000  0.89100000  0.81810000  1
  N  N303  1  0.88700000  0.65730000  0.64350000  1
  N  N304  1  0.88700000  0.84270000  0.85650000  1
  N  N305  1  0.90620000  0.20390000  0.62180000  1
  N  N306  1  0.90620000  0.29610000  0.87820000  1
  N  N307  1  0.96080000  0.24750000  0.22070000  1
  N  N308  1  0.96080000  0.25250000  0.27930000  1
  N  N309  1  0.97960000  0.70400000  0.91680000  1
  N  N310  1  0.97960000  0.79600000  0.58320000  1
  N  N311  1  0.98610000  0.75000000  0.25000000  1
  O  O312  1  0.18450000  0.25000000  0.25000000  1
  O  O313  1  0.31550000  0.75000000  0.25000000  1
  O  O314  1  0.68450000  0.25000000  0.75000000  1
  O  O315  1  0.81550000  0.75000000  0.75000000  1
