# generated using pymatgen
data_CuH16C24(N4O)2
_symmetry_space_group_name_H-M   'P 1'
_cell_length_a   13.90770000
_cell_length_b   16.43550000
_cell_length_c   16.43550000
_cell_angle_alpha   90.00000000
_cell_angle_beta   90.00000000
_cell_angle_gamma   90.00000000
_symmetry_Int_Tables_number   1
_chemical_formula_structural   CuH16C24(N4O)2
_chemical_formula_sum   'Cu4 H64 C96 N32 O8'
_cell_volume   3756.82664506
_cell_formula_units_Z   4
loop_
 _symmetry_equiv_pos_site_id
 _symmetry_equiv_pos_as_xyz
  1  'x, y, z'
loop_
 _atom_site_type_symbol
 _atom_site_label
 _atom_site_symmetry_multiplicity
 _atom_site_fract_x
 _atom_site_fract_y
 _atom_site_fract_z
 _atom_site_occupancy
  Cu  Cu0  1  0.00000000  0.18261000  0.18261000  1
  Cu  Cu1  1  0.25000000  0.68261000  0.31739000  1
  Cu  Cu2  1  0.50000000  0.81739000  0.81739000  1
  Cu  Cu3  1  0.75000000  0.31739000  0.68261000  1
  H  H4  1  0.00110000  0.20990000  0.49580000  1
  H  H5  1  0.02080000  0.36000000  0.12940000  1
  H  H6  1  0.02430000  0.13500000  0.72580000  1
  H  H7  1  0.02460000  0.49650000  0.73930000  1
  H  H8  1  0.07910000  0.66580000  0.41860000  1
  H  H9  1  0.10760000  0.75740000  0.21080000  1
  H  H10  1  0.11660000  0.03210000  0.21870000  1
  H  H11  1  0.11950000  0.43840000  0.04980000  1
  H  H12  1  0.13050000  0.93840000  0.45020000  1
  H  H13  1  0.13340000  0.53210000  0.28130000  1
  H  H14  1  0.14240000  0.25740000  0.28920000  1
  H  H15  1  0.17090000  0.16580000  0.08140000  1
  H  H16  1  0.22540000  0.99650000  0.76070000  1
  H  H17  1  0.22570000  0.63500000  0.77420000  1
  H  H18  1  0.22920000  0.86000000  0.37060000  1
  H  H19  1  0.24890000  0.70990000  0.00420000  1
  H  H20  1  0.25110000  0.99580000  0.29010000  1
  H  H21  1  0.27080000  0.62940000  0.14000000  1
  H  H22  1  0.27430000  0.22580000  0.36500000  1
  H  H23  1  0.27460000  0.23930000  0.00350000  1
  H  H24  1  0.32910000  0.91860000  0.83420000  1
  H  H25  1  0.35760000  0.71080000  0.74260000  1
  H  H26  1  0.36660000  0.71870000  0.46790000  1
  H  H27  1  0.36950000  0.54980000  0.06160000  1
  H  H28  1  0.38050000  0.95020000  0.56160000  1
  H  H29  1  0.38340000  0.78130000  0.96790000  1
  H  H30  1  0.39240000  0.78920000  0.24260000  1
  H  H31  1  0.42090000  0.58140000  0.33420000  1
  H  H32  1  0.47540000  0.26070000  0.50350000  1
  H  H33  1  0.47570000  0.27420000  0.86500000  1
  H  H34  1  0.47920000  0.87060000  0.64000000  1
  H  H35  1  0.49890000  0.50420000  0.79010000  1
  H  H36  1  0.50110000  0.79010000  0.50420000  1
  H  H37  1  0.52080000  0.64000000  0.87060000  1
  H  H38  1  0.52430000  0.86500000  0.27420000  1
  H  H39  1  0.52460000  0.50350000  0.26070000  1
  H  H40  1  0.57910000  0.33420000  0.58140000  1
  H  H41  1  0.60760000  0.24260000  0.78920000  1
  H  H42  1  0.61660000  0.96790000  0.78130000  1
  H  H43  1  0.61950000  0.56160000  0.95020000  1
  H  H44  1  0.63050000  0.06160000  0.54980000  1
  H  H45  1  0.63340000  0.46790000  0.71870000  1
  H  H46  1  0.64240000  0.74260000  0.71080000  1
  H  H47  1  0.67090000  0.83420000  0.91860000  1
  H  H48  1  0.72540000  0.00350000  0.23930000  1
  H  H49  1  0.72570000  0.36500000  0.22580000  1
  H  H50  1  0.72920000  0.14000000  0.62940000  1
  H  H51  1  0.74890000  0.29010000  0.99580000  1
  H  H52  1  0.75110000  0.00420000  0.70990000  1
  H  H53  1  0.77080000  0.37060000  0.86000000  1
  H  H54  1  0.77430000  0.77420000  0.63500000  1
  H  H55  1  0.77460000  0.76070000  0.99650000  1
  H  H56  1  0.82910000  0.08140000  0.16580000  1
  H  H57  1  0.85760000  0.28920000  0.25740000  1
  H  H58  1  0.86660000  0.28130000  0.53210000  1
  H  H59  1  0.86950000  0.45020000  0.93840000  1
  H  H60  1  0.88050000  0.04980000  0.43840000  1
  H  H61  1  0.88340000  0.21870000  0.03210000  1
  H  H62  1  0.89240000  0.21080000  0.75740000  1
  H  H63  1  0.92090000  0.41860000  0.66580000  1
  H  H64  1  0.97540000  0.73930000  0.49650000  1
  H  H65  1  0.97570000  0.72580000  0.13500000  1
  H  H66  1  0.97920000  0.12940000  0.36000000  1
  H  H67  1  0.99890000  0.49580000  0.20990000  1
  C  C68  1  0.00632000  0.68552000  0.16516000  1
  C  C69  1  0.02037000  0.54938000  0.20907000  1
  C  C70  1  0.02114000  0.53617000  0.89365000  1
  C  C71  1  0.02753000  0.76505000  0.47220000  1
  C  C72  1  0.02765000  0.16421000  0.60730000  1
  C  C73  1  0.04187000  0.84641000  0.48418000  1
  C  C74  1  0.07225000  0.33533000  0.10307000  1
  C  C75  1  0.08541000  0.70402000  0.21063000  1
  C  C76  1  0.08950000  0.72137000  0.42470000  1
  C  C77  1  0.10016000  0.57176000  0.25239000  1
  C  C78  1  0.11237000  0.11570000  0.58635000  1
  C  C79  1  0.11896000  0.88298000  0.44458000  1
  C  C80  1  0.13104000  0.38298000  0.05542000  1
  C  C81  1  0.13763000  0.61570000  0.91365000  1
  C  C82  1  0.14984000  0.07176000  0.24761000  1
  C  C83  1  0.16050000  0.22137000  0.07530000  1
  C  C84  1  0.16459000  0.20402000  0.28937000  1
  C  C85  1  0.17775000  0.83533000  0.39693000  1
  C  C86  1  0.20813000  0.34641000  0.01582000  1
  C  C87  1  0.22235000  0.66421000  0.89270000  1
  C  C88  1  0.22247000  0.26505000  0.02780000  1
  C  C89  1  0.22886000  0.03617000  0.60635000  1
  C  C90  1  0.22963000  0.04938000  0.29093000  1
  C  C91  1  0.24368000  0.18552000  0.33484000  1
  C  C92  1  0.25632000  0.66516000  0.81448000  1
  C  C93  1  0.27037000  0.70907000  0.95062000  1
  C  C94  1  0.27114000  0.39365000  0.96383000  1
  C  C95  1  0.27753000  0.97220000  0.73495000  1
  C  C96  1  0.27765000  0.10730000  0.33579000  1
  C  C97  1  0.29187000  0.98418000  0.65359000  1
  C  C98  1  0.32225000  0.60307000  0.16467000  1
  C  C99  1  0.33541000  0.71063000  0.79598000  1
  C  C100  1  0.33950000  0.92470000  0.77863000  1
  C  C101  1  0.35016000  0.75239000  0.92824000  1
  C  C102  1  0.36237000  0.08635000  0.38430000  1
  C  C103  1  0.36896000  0.94458000  0.61702000  1
  C  C104  1  0.38104000  0.55542000  0.11702000  1
  C  C105  1  0.38763000  0.41365000  0.88430000  1
  C  C106  1  0.39984000  0.74761000  0.42824000  1
  C  C107  1  0.41050000  0.57530000  0.27863000  1
  C  C108  1  0.41459000  0.78937000  0.29598000  1
  C  C109  1  0.42775000  0.89693000  0.66467000  1
  C  C110  1  0.45813000  0.51582000  0.15359000  1
  C  C111  1  0.47235000  0.39270000  0.83579000  1
  C  C112  1  0.47247000  0.52780000  0.23495000  1
  C  C113  1  0.47886000  0.10635000  0.46383000  1
  C  C114  1  0.47963000  0.79093000  0.45062000  1
  C  C115  1  0.49368000  0.83484000  0.31448000  1
  C  C116  1  0.50632000  0.31448000  0.83484000  1
  C  C117  1  0.52037000  0.45062000  0.79093000  1
  C  C118  1  0.52114000  0.46383000  0.10635000  1
  C  C119  1  0.52753000  0.23495000  0.52780000  1
  C  C120  1  0.52765000  0.83579000  0.39270000  1
  C  C121  1  0.54187000  0.15359000  0.51582000  1
  C  C122  1  0.57225000  0.66467000  0.89693000  1
  C  C123  1  0.58541000  0.29598000  0.78937000  1
  C  C124  1  0.58950000  0.27863000  0.57530000  1
  C  C125  1  0.60016000  0.42824000  0.74761000  1
  C  C126  1  0.61237000  0.88430000  0.41365000  1
  C  C127  1  0.61896000  0.11702000  0.55542000  1
  C  C128  1  0.63104000  0.61702000  0.94458000  1
  C  C129  1  0.63763000  0.38430000  0.08635000  1
  C  C130  1  0.64984000  0.92824000  0.75239000  1
  C  C131  1  0.66050000  0.77863000  0.92470000  1
  C  C132  1  0.66459000  0.79598000  0.71063000  1
  C  C133  1  0.67775000  0.16467000  0.60307000  1
  C  C134  1  0.70813000  0.65359000  0.98418000  1
  C  C135  1  0.72235000  0.33579000  0.10730000  1
  C  C136  1  0.72247000  0.73495000  0.97220000  1
  C  C137  1  0.72886000  0.96383000  0.39365000  1
  C  C138  1  0.72963000  0.95062000  0.70907000  1
  C  C139  1  0.74368000  0.81448000  0.66516000  1
  C  C140  1  0.75632000  0.33484000  0.18552000  1
  C  C141  1  0.77037000  0.29093000  0.04938000  1
  C  C142  1  0.77114000  0.60635000  0.03617000  1
  C  C143  1  0.77753000  0.02780000  0.26505000  1
  C  C144  1  0.77765000  0.89270000  0.66421000  1
  C  C145  1  0.79187000  0.01582000  0.34641000  1
  C  C146  1  0.82225000  0.39693000  0.83533000  1
  C  C147  1  0.83541000  0.28937000  0.20402000  1
  C  C148  1  0.83950000  0.07530000  0.22137000  1
  C  C149  1  0.85016000  0.24761000  0.07176000  1
  C  C150  1  0.86237000  0.91365000  0.61570000  1
  C  C151  1  0.86896000  0.05542000  0.38298000  1
  C  C152  1  0.88104000  0.44458000  0.88298000  1
  C  C153  1  0.88763000  0.58635000  0.11570000  1
  C  C154  1  0.89984000  0.25239000  0.57176000  1
  C  C155  1  0.91050000  0.42470000  0.72137000  1
  C  C156  1  0.91459000  0.21063000  0.70402000  1
  C  C157  1  0.92775000  0.10307000  0.33533000  1
  C  C158  1  0.95813000  0.48418000  0.84641000  1
  C  C159  1  0.97235000  0.60730000  0.16421000  1
  C  C160  1  0.97247000  0.47220000  0.76505000  1
  C  C161  1  0.97886000  0.89365000  0.53617000  1
  C  C162  1  0.97963000  0.20907000  0.54938000  1
  C  C163  1  0.99368000  0.16516000  0.68552000  1
  N  N164  1  0.01792000  0.55522000  0.96985000  1
  N  N165  1  0.08521000  0.25546000  0.11346000  1
  N  N166  1  0.09546000  0.60882000  0.98259000  1
  N  N167  1  0.11770000  0.14866000  0.24519000  1
  N  N168  1  0.13230000  0.64866000  0.25481000  1
  N  N169  1  0.15454000  0.10882000  0.51741000  1
  N  N170  1  0.16479000  0.75546000  0.38654000  1
  N  N171  1  0.23208000  0.05522000  0.53015000  1
  N  N172  1  0.26792000  0.46985000  0.94478000  1
  N  N173  1  0.33521000  0.61346000  0.24454000  1
  N  N174  1  0.34546000  0.48259000  0.89118000  1
  N  N175  1  0.36770000  0.74519000  0.35134000  1
  N  N176  1  0.38230000  0.75481000  0.85134000  1
  N  N177  1  0.40454000  0.01741000  0.39118000  1
  N  N178  1  0.41479000  0.88654000  0.74454000  1
  N  N179  1  0.48208000  0.03015000  0.44478000  1
  N  N180  1  0.51792000  0.44478000  0.03015000  1
  N  N181  1  0.58521000  0.74454000  0.88654000  1
  N  N182  1  0.59546000  0.39118000  0.01741000  1
  N  N183  1  0.61770000  0.85134000  0.75481000  1
  N  N184  1  0.63230000  0.35134000  0.74519000  1
  N  N185  1  0.65454000  0.89118000  0.48259000  1
  N  N186  1  0.66479000  0.24454000  0.61346000  1
  N  N187  1  0.73208000  0.94478000  0.46985000  1
  N  N188  1  0.76792000  0.53015000  0.05522000  1
  N  N189  1  0.83521000  0.38654000  0.75546000  1
  N  N190  1  0.84546000  0.51741000  0.10882000  1
  N  N191  1  0.86770000  0.25481000  0.64866000  1
  N  N192  1  0.88230000  0.24519000  0.14866000  1
  N  N193  1  0.90454000  0.98259000  0.60882000  1
  N  N194  1  0.91479000  0.11346000  0.25546000  1
  N  N195  1  0.98208000  0.96985000  0.55522000  1
  O  O196  1  0.09634000  0.57143000  0.85382000  1
  O  O197  1  0.15366000  0.07143000  0.64618000  1
  O  O198  1  0.34634000  0.35382000  0.92857000  1
  O  O199  1  0.40366000  0.14618000  0.42857000  1
  O  O200  1  0.59634000  0.42857000  0.14618000  1
  O  O201  1  0.65366000  0.92857000  0.35382000  1
  O  O202  1  0.84634000  0.64618000  0.07143000  1
  O  O203  1  0.90366000  0.85382000  0.57143000  1
