# generated using pymatgen
data_CuH6(C5O2)2
_symmetry_space_group_name_H-M   'P 1'
_cell_length_a   26.40002818
_cell_length_b   26.40002818
_cell_length_c   45.84870000
_cell_angle_alpha   73.26750000
_cell_angle_beta   73.26750000
_cell_angle_gamma   60.00000000
_symmetry_Int_Tables_number   1
_chemical_formula_structural   CuH6(C5O2)2
_chemical_formula_sum   'Cu48 H288 C480 O192'
_cell_volume   26099.66856821
_cell_formula_units_Z   48
loop_
 _symmetry_equiv_pos_site_id
 _symmetry_equiv_pos_as_xyz
  1  'x, y, z'
loop_
 _atom_site_type_symbol
 _atom_site_label
 _atom_site_symmetry_multiplicity
 _atom_site_fract_x
 _atom_site_fract_y
 _atom_site_fract_z
 _atom_site_occupancy
  Cu  Cu0  1  0.97452000  0.00695000  0.61378000  1
  Cu  Cu1  1  0.59525000  0.02548000  0.38622000  1
  Cu  Cu2  1  0.07465000  0.04410000  0.33682000  1
  Cu  Cu3  1  0.57465000  0.04443000  0.83682000  1
  Cu  Cu4  1  0.54443000  0.07465000  0.33682000  1
  Cu  Cu5  1  0.52548000  0.09525000  0.88622000  1
  Cu  Cu6  1  0.24505000  0.14265000  0.90365000  1
  Cu  Cu7  1  0.68653000  0.15644000  0.90817000  1
  Cu  Cu8  1  0.65644000  0.18653000  0.40817000  1
  Cu  Cu9  1  0.74505000  0.20865000  0.40365000  1
  Cu  Cu10  1  0.70865000  0.24505000  0.90365000  1
  Cu  Cu11  1  0.15644000  0.24886000  0.90817000  1
  Cu  Cu12  1  0.81347000  0.25114000  0.59183000  1
  Cu  Cu13  1  0.35735000  0.25495000  0.59635000  1
  Cu  Cu14  1  0.85735000  0.29135000  0.09635000  1
  Cu  Cu15  1  0.75114000  0.31347000  0.09183000  1
  Cu  Cu16  1  0.25114000  0.34356000  0.59183000  1
  Cu  Cu17  1  0.79135000  0.35735000  0.59635000  1
  Cu  Cu18  1  0.00695000  0.40475000  0.61378000  1
  Cu  Cu19  1  0.45590000  0.42535000  0.16318000  1
  Cu  Cu20  1  0.95590000  0.45557000  0.66318000  1
  Cu  Cu21  1  0.95557000  0.45590000  0.16318000  1
  Cu  Cu22  1  0.50695000  0.47452000  0.11378000  1
  Cu  Cu23  1  0.09525000  0.49305000  0.88622000  1
  Cu  Cu24  1  0.90475000  0.50695000  0.11378000  1
  Cu  Cu25  1  0.49305000  0.52548000  0.88622000  1
  Cu  Cu26  1  0.04443000  0.54410000  0.83682000  1
  Cu  Cu27  1  0.04410000  0.54443000  0.33682000  1
  Cu  Cu28  1  0.54410000  0.57465000  0.83682000  1
  Cu  Cu29  1  0.99305000  0.59525000  0.38622000  1
  Cu  Cu30  1  0.20865000  0.64265000  0.40365000  1
  Cu  Cu31  1  0.74886000  0.65644000  0.40817000  1
  Cu  Cu32  1  0.24886000  0.68653000  0.90817000  1
  Cu  Cu33  1  0.14265000  0.70865000  0.90365000  1
  Cu  Cu34  1  0.64265000  0.74505000  0.40365000  1
  Cu  Cu35  1  0.18653000  0.74886000  0.40817000  1
  Cu  Cu36  1  0.84356000  0.75114000  0.09183000  1
  Cu  Cu37  1  0.29135000  0.75495000  0.09635000  1
  Cu  Cu38  1  0.25495000  0.79135000  0.59635000  1
  Cu  Cu39  1  0.34356000  0.81347000  0.59183000  1
  Cu  Cu40  1  0.31347000  0.84356000  0.09183000  1
  Cu  Cu41  1  0.75495000  0.85735000  0.09635000  1
  Cu  Cu42  1  0.47452000  0.90475000  0.11378000  1
  Cu  Cu43  1  0.45557000  0.92535000  0.66318000  1
  Cu  Cu44  1  0.42535000  0.95557000  0.16318000  1
  Cu  Cu45  1  0.92535000  0.95590000  0.66318000  1
  Cu  Cu46  1  0.40475000  0.97452000  0.61378000  1
  Cu  Cu47  1  0.02548000  0.99305000  0.38622000  1
  H  H48  1  0.67730000  0.00250000  0.62770000  1
  H  H49  1  0.76440000  0.00690000  0.62790000  1
  H  H50  1  0.40710000  0.01260000  0.37270000  1
  H  H51  1  0.76210000  0.01380000  0.38350000  1
  H  H52  1  0.03090000  0.01730000  0.07920000  1
  H  H53  1  0.85770000  0.01970000  0.39040000  1
  H  H54  1  0.87260000  0.03090000  0.07920000  1
  H  H55  1  0.54450000  0.03510000  0.07860000  1
  H  H56  1  0.53510000  0.04450000  0.57860000  1
  H  H57  1  0.87250000  0.04500000  0.92280000  1
  H  H58  1  0.31200000  0.04750000  0.07890000  1
  H  H59  1  0.14120000  0.05260000  0.91670000  1
  H  H60  1  0.81200000  0.06160000  0.57890000  1
  H  H61  1  0.88020000  0.06850000  0.33320000  1
  H  H62  1  0.34150000  0.07170000  0.71400000  1
  H  H63  1  0.60070000  0.07340000  0.55140000  1
  H  H64  1  0.08040000  0.07380000  0.61650000  1
  H  H65  1  0.22930000  0.08040000  0.61650000  1
  H  H66  1  0.74590000  0.08130000  0.55240000  1
  H  H67  1  0.48740000  0.09290000  0.12730000  1
  H  H68  1  0.86220000  0.09730000  0.71660000  1
  H  H69  1  0.57340000  0.10070000  0.05140000  1
  H  H70  1  0.26440000  0.10080000  0.12790000  1
  H  H71  1  0.79860000  0.10460000  0.31640000  1
  H  H72  1  0.71120000  0.11040000  0.33740000  1
  H  H73  1  0.94740000  0.11050000  0.08330000  1
  H  H74  1  0.64130000  0.11790000  0.50540000  1
  H  H75  1  0.29620000  0.11860000  0.75880000  1
  H  H76  1  0.28190000  0.11980000  0.66680000  1
  H  H77  1  0.24590000  0.12040000  0.05240000  1
  H  H78  1  0.92830000  0.12720000  0.28600000  1
  H  H79  1  0.98270000  0.12740000  0.92080000  1
  H  H80  1  0.84030000  0.12750000  0.07720000  1
  H  H81  1  0.23700000  0.12840000  0.00460000  1
  H  H82  1  0.73700000  0.13000000  0.50460000  1
  H  H83  1  0.67610000  0.13780000  0.28340000  1
  H  H84  1  0.88950000  0.14120000  0.91670000  1
  H  H85  1  0.61790000  0.14130000  0.00540000  1
  H  H86  1  0.26780000  0.14230000  0.60960000  1
  H  H87  1  0.81830000  0.14750000  0.76080000  1
  H  H88  1  0.25640000  0.15750000  0.80600000  1
  H  H89  1  0.95550000  0.15820000  0.42140000  1
  H  H90  1  0.77000000  0.15840000  0.80890000  1
  H  H91  1  0.42830000  0.15850000  0.78600000  1
  H  H92  1  0.88960000  0.15900000  0.66260000  1
  H  H93  1  0.98620000  0.15940000  0.61650000  1
  H  H94  1  0.04500000  0.15970000  0.92280000  1
  H  H95  1  0.88140000  0.17360000  0.24120000  1
  H  H96  1  0.63780000  0.17610000  0.78340000  1
  H  H97  1  0.50250000  0.17730000  0.12770000  1
  H  H98  1  0.72660000  0.18170000  0.23920000  1
  H  H99  1  0.45250000  0.18800000  0.42110000  1
  H  H100  1  0.17730000  0.19250000  0.12770000  1
  H  H101  1  0.21960000  0.20140000  0.68360000  1
  H  H102  1  0.38140000  0.20380000  0.74120000  1
  H  H103  1  0.01260000  0.20760000  0.37270000  1
  H  H104  1  0.61040000  0.21120000  0.83740000  1
  H  H105  1  0.38020000  0.21810000  0.83320000  1
  H  H106  1  0.89540000  0.21960000  0.68360000  1
  H  H107  1  0.84250000  0.21990000  0.19400000  1
  H  H108  1  0.92660000  0.22550000  0.44860000  1
  H  H109  1  0.68170000  0.22660000  0.73920000  1
  H  H110  1  0.07380000  0.22930000  0.61650000  1
  H  H111  1  0.73730000  0.23000000  0.19110000  1
  H  H112  1  0.35770000  0.23220000  0.89040000  1
  H  H113  1  0.14130000  0.23540000  0.00540000  1
  H  H114  1  0.39920000  0.23560000  0.37210000  1
  H  H115  1  0.63000000  0.23700000  0.00460000  1
  H  H116  1  0.73000000  0.23730000  0.69110000  1
  H  H117  1  0.15940000  0.23790000  0.61650000  1
  H  H118  1  0.34250000  0.24360000  0.69400000  1
  H  H119  1  0.58130000  0.24590000  0.05240000  1
  H  H120  1  0.37960000  0.25410000  0.44760000  1
  H  H121  1  0.78010000  0.25640000  0.80600000  1
  H  H122  1  0.51380000  0.26210000  0.88350000  1
  H  H123  1  0.15840000  0.26270000  0.80890000  1
  H  H124  1  0.37160000  0.26300000  0.49540000  1
  H  H125  1  0.50690000  0.26440000  0.12790000  1
  H  H126  1  0.88210000  0.26460000  0.49460000  1
  H  H127  1  0.98030000  0.26780000  0.60960000  1
  H  H128  1  0.65840000  0.27000000  0.30890000  1
  H  H129  1  0.41960000  0.27070000  0.88350000  1
  H  H130  1  0.14750000  0.27340000  0.76080000  1
  H  H131  1  0.10070000  0.27450000  0.05140000  1
  H  H132  1  0.75640000  0.28010000  0.30600000  1
  H  H133  1  0.29860000  0.28040000  0.81640000  1
  H  H134  1  0.93150000  0.28190000  0.66680000  1
  H  H135  1  0.15900000  0.28880000  0.66260000  1
  H  H136  1  0.09290000  0.29240000  0.12730000  1
  H  H137  1  0.82640000  0.29620000  0.75880000  1
  H  H138  1  0.60460000  0.29860000  0.81640000  1
  H  H139  1  0.99750000  0.30750000  0.37230000  1
  H  H140  1  0.56160000  0.31200000  0.07890000  1
  H  H141  1  0.64750000  0.31830000  0.26080000  1
  H  H142  1  0.30750000  0.32270000  0.37230000  1
  H  H143  1  0.09730000  0.32390000  0.71660000  1
  H  H144  1  0.79620000  0.32640000  0.25880000  1
  H  H145  1  0.62750000  0.34030000  0.57720000  1
  H  H146  1  0.26210000  0.34060000  0.88350000  1
  H  H147  1  0.21120000  0.34100000  0.83740000  1
  H  H148  1  0.87280000  0.34150000  0.71400000  1
  H  H149  1  0.23730000  0.34160000  0.69110000  1
  H  H150  1  0.03510000  0.34180000  0.07860000  1
  H  H151  1  0.71990000  0.34250000  0.69400000  1
  H  H152  1  0.22660000  0.35250000  0.73920000  1
  H  H153  1  0.51970000  0.35770000  0.89040000  1
  H  H154  1  0.26460000  0.35870000  0.49460000  1
  H  H155  1  0.44740000  0.35880000  0.58330000  1
  H  H156  1  0.59730000  0.36220000  0.21660000  1
  H  H157  1  0.87160000  0.37000000  0.99540000  1
  H  H158  1  0.87000000  0.37160000  0.49540000  1
  H  H159  1  0.54500000  0.37250000  0.42280000  1
  H  H160  1  0.53090000  0.37260000  0.57920000  1
  H  H161  1  0.84150000  0.37280000  0.21400000  1
  H  H162  1  0.91870000  0.37960000  0.44760000  1
  H  H163  1  0.56850000  0.38020000  0.83320000  1
  H  H164  1  0.67360000  0.38140000  0.74120000  1
  H  H165  1  0.76460000  0.38210000  0.99460000  1
  H  H166  1  0.64120000  0.38950000  0.41670000  1
  H  H167  1  0.65900000  0.38960000  0.16260000  1
  H  H168  1  0.71960000  0.39540000  0.18360000  1
  H  H169  1  0.99310000  0.39920000  0.37210000  1
  H  H170  1  0.22550000  0.39930000  0.44860000  1
  H  H171  1  0.17610000  0.40270000  0.78340000  1
  H  H172  1  0.20760000  0.40710000  0.37270000  1
  H  H173  1  0.87960000  0.41870000  0.94760000  1
  H  H174  1  0.42620000  0.41960000  0.88350000  1
  H  H175  1  0.27070000  0.42620000  0.88350000  1
  H  H176  1  0.72550000  0.42660000  0.94860000  1
  H  H177  1  0.62720000  0.42830000  0.78600000  1
  H  H178  1  0.78190000  0.43150000  0.16680000  1
  H  H179  1  0.95250000  0.43840000  0.92110000  1
  H  H180  1  0.61050000  0.44740000  0.58330000  1
  H  H181  1  0.93840000  0.45250000  0.42110000  1
  H  H182  1  0.34030000  0.45500000  0.57720000  1
  H  H183  1  0.65820000  0.45550000  0.92140000  1
  H  H184  1  0.15820000  0.46490000  0.42140000  1
  H  H185  1  0.48270000  0.46910000  0.42080000  1
  H  H186  1  0.76780000  0.48030000  0.10960000  1
  H  H187  1  0.62740000  0.48270000  0.42080000  1
  H  H188  1  0.65940000  0.48620000  0.11650000  1
  H  H189  1  0.29240000  0.48740000  0.12730000  1
  H  H190  1  0.89920000  0.49310000  0.87210000  1
  H  H191  1  0.80750000  0.49750000  0.87230000  1
  H  H192  1  0.19250000  0.50250000  0.12770000  1
  H  H193  1  0.10080000  0.50690000  0.12790000  1
  H  H194  1  0.70760000  0.51260000  0.87270000  1
  H  H195  1  0.34060000  0.51380000  0.88350000  1
  H  H196  1  0.37260000  0.51730000  0.57920000  1
  H  H197  1  0.23220000  0.51970000  0.89040000  1
  H  H198  1  0.51730000  0.53090000  0.57920000  1
  H  H199  1  0.84180000  0.53510000  0.57860000  1
  H  H200  1  0.34180000  0.54450000  0.07860000  1
  H  H201  1  0.65970000  0.54500000  0.42280000  1
  H  H202  1  0.06160000  0.54750000  0.57890000  1
  H  H203  1  0.38950000  0.55260000  0.41670000  1
  H  H204  1  0.04750000  0.56160000  0.07890000  1
  H  H205  1  0.21810000  0.56850000  0.83320000  1
  H  H206  1  0.37280000  0.57170000  0.21400000  1
  H  H207  1  0.27450000  0.57340000  0.05140000  1
  H  H208  1  0.72930000  0.57380000  0.11650000  1
  H  H209  1  0.57380000  0.58040000  0.11650000  1
  H  H210  1  0.12040000  0.58130000  0.05240000  1
  H  H211  1  0.79240000  0.59290000  0.62730000  1
  H  H212  1  0.82390000  0.59730000  0.21660000  1
  H  H213  1  0.77450000  0.60070000  0.55140000  1
  H  H214  1  0.00690000  0.60080000  0.62790000  1
  H  H215  1  0.28040000  0.60460000  0.81640000  1
  H  H216  1  0.34100000  0.61040000  0.83740000  1
  H  H217  1  0.35880000  0.61050000  0.58330000  1
  H  H218  1  0.23540000  0.61790000  0.00540000  1
  H  H219  1  0.32640000  0.61860000  0.25880000  1
  H  H220  1  0.43150000  0.61980000  0.16680000  1
  H  H221  1  0.08130000  0.62040000  0.55240000  1
  H  H222  1  0.15850000  0.62720000  0.78600000  1
  H  H223  1  0.46910000  0.62740000  0.42080000  1
  H  H224  1  0.45500000  0.62750000  0.57720000  1
  H  H225  1  0.13000000  0.62840000  0.50460000  1
  H  H226  1  0.12840000  0.63000000  0.00460000  1
  H  H227  1  0.40270000  0.63780000  0.78340000  1
  H  H228  1  0.55260000  0.64120000  0.41670000  1
  H  H229  1  0.73540000  0.64130000  0.50540000  1
  H  H230  1  0.48030000  0.64230000  0.10960000  1
  H  H231  1  0.77340000  0.64750000  0.26080000  1
  H  H232  1  0.28010000  0.65750000  0.30600000  1
  H  H233  1  0.96490000  0.65820000  0.92140000  1
  H  H234  1  0.76270000  0.65840000  0.30890000  1
  H  H235  1  0.12720000  0.65850000  0.28600000  1
  H  H236  1  0.78880000  0.65900000  0.16260000  1
  H  H237  1  0.73790000  0.65940000  0.11650000  1
  H  H238  1  0.37250000  0.65970000  0.42280000  1
  H  H239  1  0.20380000  0.67360000  0.74120000  1
  H  H240  1  0.90270000  0.67610000  0.28340000  1
  H  H241  1  0.69250000  0.67730000  0.62770000  1
  H  H242  1  0.35250000  0.68170000  0.73920000  1
  H  H243  1  0.43840000  0.68800000  0.92110000  1
  H  H244  1  0.00250000  0.69250000  0.62770000  1
  H  H245  1  0.39540000  0.70140000  0.18360000  1
  H  H246  1  0.17360000  0.70380000  0.24120000  1
  H  H247  1  0.90710000  0.70760000  0.87270000  1
  H  H248  1  0.84100000  0.71120000  0.33740000  1
  H  H249  1  0.06850000  0.71810000  0.33320000  1
  H  H250  1  0.70140000  0.71960000  0.18360000  1
  H  H251  1  0.24360000  0.71990000  0.69400000  1
  H  H252  1  0.89930000  0.72550000  0.94860000  1
  H  H253  1  0.85250000  0.72660000  0.23920000  1
  H  H254  1  0.58040000  0.72930000  0.11650000  1
  H  H255  1  0.34160000  0.73000000  0.69110000  1
  H  H256  1  0.01970000  0.73220000  0.39040000  1
  H  H257  1  0.11790000  0.73540000  0.50540000  1
  H  H258  1  0.49310000  0.73560000  0.87210000  1
  H  H259  1  0.62840000  0.73700000  0.50460000  1
  H  H260  1  0.84160000  0.73730000  0.19110000  1
  H  H261  1  0.48620000  0.73790000  0.11650000  1
  H  H262  1  0.21990000  0.74360000  0.19400000  1
  H  H263  1  0.62040000  0.74590000  0.55240000  1
  H  H264  1  0.41870000  0.75410000  0.94760000  1
  H  H265  1  0.65750000  0.75640000  0.30600000  1
  H  H266  1  0.84060000  0.76210000  0.38350000  1
  H  H267  1  0.27000000  0.76270000  0.30890000  1
  H  H268  1  0.37000000  0.76300000  0.99540000  1
  H  H269  1  0.60080000  0.76440000  0.62790000  1
  H  H270  1  0.85870000  0.76460000  0.99460000  1
  H  H271  1  0.64230000  0.76780000  0.10960000  1
  H  H272  1  0.26270000  0.77000000  0.80890000  1
  H  H273  1  0.92620000  0.77070000  0.38350000  1
  H  H274  1  0.31830000  0.77340000  0.26080000  1
  H  H275  1  0.07340000  0.77450000  0.55140000  1
  H  H276  1  0.15750000  0.78010000  0.80600000  1
  H  H277  1  0.10460000  0.78040000  0.31640000  1
  H  H278  1  0.61980000  0.78190000  0.16680000  1
  H  H279  1  0.38960000  0.78880000  0.16260000  1
  H  H280  1  0.98740000  0.79240000  0.62730000  1
  H  H281  1  0.61860000  0.79620000  0.25880000  1
  H  H282  1  0.78040000  0.79860000  0.31640000  1
  H  H283  1  0.82270000  0.80750000  0.87230000  1
  H  H284  1  0.54750000  0.81200000  0.57890000  1
  H  H285  1  0.27340000  0.81830000  0.76080000  1
  H  H286  1  0.49750000  0.82270000  0.87230000  1
  H  H287  1  0.36220000  0.82390000  0.21660000  1
  H  H288  1  0.11860000  0.82640000  0.75880000  1
  H  H289  1  0.95500000  0.84030000  0.07720000  1
  H  H290  1  0.01380000  0.84060000  0.38350000  1
  H  H291  1  0.11040000  0.84100000  0.33740000  1
  H  H292  1  0.57170000  0.84150000  0.21400000  1
  H  H293  1  0.23000000  0.84160000  0.19110000  1
  H  H294  1  0.04450000  0.84180000  0.57860000  1
  H  H295  1  0.74360000  0.84250000  0.19400000  1
  H  H296  1  0.18170000  0.85250000  0.23920000  1
  H  H297  1  0.73220000  0.85770000  0.39040000  1
  H  H298  1  0.38210000  0.85870000  0.99460000  1
  H  H299  1  0.11050000  0.85880000  0.08330000  1
  H  H300  1  0.32390000  0.86220000  0.71660000  1
  H  H301  1  0.26300000  0.87000000  0.49540000  1
  H  H302  1  0.76300000  0.87160000  0.99540000  1
  H  H303  1  0.15970000  0.87250000  0.92280000  1
  H  H304  1  0.01730000  0.87260000  0.07920000  1
  H  H305  1  0.07170000  0.87280000  0.71400000  1
  H  H306  1  0.75410000  0.87960000  0.94760000  1
  H  H307  1  0.71810000  0.88020000  0.33320000  1
  H  H308  1  0.70380000  0.88140000  0.24120000  1
  H  H309  1  0.35870000  0.88210000  0.49460000  1
  H  H310  1  0.05260000  0.88950000  0.91670000  1
  H  H311  1  0.28880000  0.88960000  0.66260000  1
  H  H312  1  0.20140000  0.89540000  0.68360000  1
  H  H313  1  0.73560000  0.89920000  0.87210000  1
  H  H314  1  0.42660000  0.89930000  0.94860000  1
  H  H315  1  0.13780000  0.90270000  0.28340000  1
  H  H316  1  0.51260000  0.90710000  0.87270000  1
  H  H317  1  0.25410000  0.91870000  0.44760000  1
  H  H318  1  0.77070000  0.91960000  0.38350000  1
  H  H319  1  0.91960000  0.92620000  0.38350000  1
  H  H320  1  0.39930000  0.92660000  0.44860000  1
  H  H321  1  0.65850000  0.92830000  0.28600000  1
  H  H322  1  0.11980000  0.93150000  0.66680000  1
  H  H323  1  0.18800000  0.93840000  0.42110000  1
  H  H324  1  0.85880000  0.94740000  0.08330000  1
  H  H325  1  0.68800000  0.95250000  0.92110000  1
  H  H326  1  0.12750000  0.95500000  0.07720000  1
  H  H327  1  0.46490000  0.95550000  0.42140000  1
  H  H328  1  0.45550000  0.96490000  0.92140000  1
  H  H329  1  0.12740000  0.96910000  0.92080000  1
  H  H330  1  0.14230000  0.98030000  0.60960000  1
  H  H331  1  0.96910000  0.98270000  0.92080000  1
  H  H332  1  0.23790000  0.98620000  0.61650000  1
  H  H333  1  0.59290000  0.98740000  0.62730000  1
  H  H334  1  0.23560000  0.99310000  0.37210000  1
  H  H335  1  0.32270000  0.99750000  0.37230000  1
  C  C336  1  0.99230000  0.00020000  0.92060000  1
  C  C337  1  0.50600000  0.00080000  0.88530000  1
  C  C338  1  0.19820000  0.00250000  0.61480000  1
  C  C339  1  0.35950000  0.00520000  0.11520000  1
  C  C340  1  0.50080000  0.00600000  0.38530000  1
  C  C341  1  0.91310000  0.00770000  0.07940000  1
  C  C342  1  0.58720000  0.01070000  0.60790000  1
  C  C343  1  0.54210000  0.02010000  0.59760000  1
  C  C344  1  0.85950000  0.02010000  0.61520000  1
  C  C345  1  0.67640000  0.02230000  0.60730000  1
  C  C346  1  0.76660000  0.02750000  0.60760000  1
  C  C347  1  0.63030000  0.03300000  0.59190000  1
  C  C348  1  0.81790000  0.03340000  0.38990000  1
  C  C349  1  0.94790000  0.03360000  0.07940000  1
  C  C350  1  0.81030000  0.03880000  0.59840000  1
  C  C351  1  0.35900000  0.03930000  0.66310000  1
  C  C352  1  0.71850000  0.04090000  0.59240000  1
  C  C353  1  0.52010000  0.04210000  0.09760000  1
  C  C354  1  0.06090000  0.05210000  0.92060000  1
  C  C355  1  0.31030000  0.05250000  0.09840000  1
  C  C356  1  0.96640000  0.06090000  0.92060000  1
  C  C357  1  0.96070000  0.06140000  0.33690000  1
  C  C358  1  0.63080000  0.06400000  0.56170000  1
  C  C359  1  0.16150000  0.06610000  0.61760000  1
  C  C360  1  0.71660000  0.06930000  0.56260000  1
  C  C361  1  0.90810000  0.07260000  0.66140000  1
  C  C362  1  0.10080000  0.07830000  0.91880000  1
  C  C363  1  0.67400000  0.08140000  0.54630000  1
  C  C364  1  0.90850000  0.08150000  0.32220000  1
  C  C365  1  0.86140000  0.08530000  0.91990000  1
  C  C366  1  0.00020000  0.08690000  0.92060000  1
  C  C367  1  0.51070000  0.08720000  0.10790000  1
  C  C368  1  0.31220000  0.09150000  0.67780000  1
  C  C369  1  0.64210000  0.09190000  0.33860000  1
  C  C370  1  0.77570000  0.09480000  0.39410000  1
  C  C371  1  0.09890000  0.09550000  0.61710000  1
  C  C372  1  0.92170000  0.09790000  0.08120000  1
  C  C373  1  0.26660000  0.09830000  0.10760000  1
  C  C374  1  0.18850000  0.09890000  0.61710000  1
  C  C375  1  0.31060000  0.10030000  0.70360000  1
  C  C376  1  0.90210000  0.10080000  0.91880000  1
  C  C377  1  0.00600000  0.10790000  0.38530000  1
  C  C378  1  0.68930000  0.11190000  0.32430000  1
  C  C379  1  0.67220000  0.11220000  0.51380000  1
  C  C380  1  0.89970000  0.11450000  0.29640000  1
  C  C381  1  0.80020000  0.12420000  0.29590000  1
  C  C382  1  0.88810000  0.12550000  0.67570000  1
  C  C383  1  0.80100000  0.12640000  0.91700000  1
  C  C384  1  0.86940000  0.12850000  0.70410000  1
  C  C385  1  0.53300000  0.13030000  0.09190000  1
  C  C386  1  0.70200000  0.13060000  0.29590000  1
  C  C387  1  0.56400000  0.13080000  0.06170000  1
  C  C388  1  0.70800000  0.13190000  0.49600000  1
  C  C389  1  0.08530000  0.13340000  0.91990000  1
  C  C390  1  0.84920000  0.13580000  0.28060000  1
  C  C391  1  0.86660000  0.13860000  0.08010000  1
  C  C392  1  0.49480000  0.14050000  0.38480000  1
  C  C393  1  0.46070000  0.14100000  0.83690000  1
  C  C394  1  0.59190000  0.14210000  0.83860000  1
  C  C395  1  0.75420000  0.14250000  0.28010000  1
  C  C396  1  0.21850000  0.14820000  0.09240000  1
  C  C397  1  0.26590000  0.15050000  0.74900000  1
  C  C398  1  0.26560000  0.15080000  0.71940000  1
  C  C399  1  0.21660000  0.15150000  0.06260000  1
  C  C400  1  0.06610000  0.15480000  0.61760000  1
  C  C401  1  0.12640000  0.15560000  0.91700000  1
  C  C402  1  0.70630000  0.15760000  0.46250000  1
  C  C403  1  0.97990000  0.15980000  0.40240000  1
  C  C404  1  0.15480000  0.16150000  0.61760000  1
  C  C405  1  0.20800000  0.16410000  0.99600000  1
  C  C406  1  0.84950000  0.16540000  0.25100000  1
  C  C407  1  0.75680000  0.17110000  0.24960000  1
  C  C408  1  0.61220000  0.17220000  0.01380000  1
  C  C409  1  0.20630000  0.17360000  0.96250000  1
  C  C410  1  0.58140000  0.17400000  0.04630000  1
  C  C411  1  0.52230000  0.17640000  0.10730000  1
  C  C412  1  0.85750000  0.17680000  0.71990000  1
  C  C413  1  0.82890000  0.17750000  0.75040000  1
  C  C414  1  0.24120000  0.18210000  0.61010000  1
  C  C415  1  0.80380000  0.18420000  0.23430000  1
  C  C416  1  0.00250000  0.18450000  0.61480000  1
  C  C417  1  0.40850000  0.18780000  0.82220000  1
  C  C418  1  0.09550000  0.18850000  0.61710000  1
  C  C419  1  0.61190000  0.18930000  0.82430000  1
  C  C420  1  0.39970000  0.18940000  0.79640000  1
  C  C421  1  0.76630000  0.18960000  0.81630000  1
  C  C422  1  0.44750000  0.18970000  0.40160000  1
  C  C423  1  0.22510000  0.19130000  0.79790000  1
  C  C424  1  0.17640000  0.19400000  0.10730000  1
  C  C425  1  0.22230000  0.19620000  0.76570000  1
  C  C426  1  0.73720000  0.19630000  0.85000000  1
  C  C427  1  0.18450000  0.19820000  0.61480000  1
  C  C428  1  0.17400000  0.19830000  0.04630000  1
  C  C429  1  0.84440000  0.19900000  0.08300000  1
  C  C430  1  0.22030000  0.19980000  0.70410000  1
  C  C431  1  0.17220000  0.20180000  0.01380000  1
  C  C432  1  0.63060000  0.20200000  0.79590000  1
  C  C433  1  0.98930000  0.20580000  0.39210000  1
  C  C434  1  0.65760000  0.20630000  0.96250000  1
  C  C435  1  0.63190000  0.20800000  0.99600000  1
  C  C436  1  0.80870000  0.21430000  0.20210000  1
  C  C437  1  0.19630000  0.21650000  0.85000000  1
  C  C438  1  0.56930000  0.21660000  0.06260000  1
  C  C439  1  0.54090000  0.21850000  0.09240000  1
  C  C440  1  0.87580000  0.22030000  0.70410000  1
  C  C441  1  0.81580000  0.22230000  0.76570000  1
  C  C442  1  0.26460000  0.22430000  0.60590000  1
  C  C443  1  0.78570000  0.22510000  0.79790000  1
  C  C444  1  0.18960000  0.22780000  0.81630000  1
  C  C445  1  0.40170000  0.23340000  0.39240000  1
  C  C446  1  0.77220000  0.23370000  0.18370000  1
  C  C447  1  0.34950000  0.23410000  0.75100000  1
  C  C448  1  0.34920000  0.23440000  0.78060000  1
  C  C449  1  0.27570000  0.23540000  0.89410000  1
  C  C450  1  0.69630000  0.23720000  0.35000000  1
  C  C451  1  0.96660000  0.24120000  0.61010000  1
  C  C452  1  0.17750000  0.24320000  0.75040000  1
  C  C453  1  0.13080000  0.24350000  0.06170000  1
  C  C454  1  0.13030000  0.24480000  0.09190000  1
  C  C455  1  0.17680000  0.24580000  0.71990000  1
  C  C456  1  0.64250000  0.25420000  0.78010000  1
  C  C457  1  0.96700000  0.25520000  0.40810000  1
  C  C458  1  0.93600000  0.25650000  0.43830000  1
  C  C459  1  0.67110000  0.25680000  0.74960000  1
  C  C460  1  0.31790000  0.25880000  0.88990000  1
  C  C461  1  0.78350000  0.26280000  0.15000000  1
  C  C462  1  0.90520000  0.26460000  0.60590000  1
  C  C463  1  0.86420000  0.26560000  0.71940000  1
  C  C464  1  0.83460000  0.26590000  0.74900000  1
  C  C465  1  0.68960000  0.26630000  0.31630000  1
  C  C466  1  0.52750000  0.26660000  0.10760000  1
  C  C467  1  0.73370000  0.27220000  0.68370000  1
  C  C468  1  0.30870000  0.27490000  0.70210000  1
  C  C469  1  0.59480000  0.27570000  0.89410000  1
  C  C470  1  0.30380000  0.27770000  0.73430000  1
  C  C471  1  0.30020000  0.27970000  0.79590000  1
  C  C472  1  0.35180000  0.28150000  0.40760000  1
  C  C473  1  0.34850000  0.28340000  0.43740000  1
  C  C474  1  0.76280000  0.28350000  0.65000000  1
  C  C475  1  0.72510000  0.28570000  0.29790000  1
  C  C476  1  0.33590000  0.29200000  0.50400000  1
  C  C477  1  0.32640000  0.29370000  0.53750000  1
  C  C478  1  0.08720000  0.29420000  0.10790000  1
  C  C479  1  0.12850000  0.29800000  0.70410000  1
  C  C480  1  0.88780000  0.29820000  0.48620000  1
  C  C481  1  0.62420000  0.30020000  0.79590000  1
  C  C482  1  0.62640000  0.30100000  0.41700000  1
  C  C483  1  0.91860000  0.30170000  0.45370000  1
  C  C484  1  0.49750000  0.30180000  0.88520000  1
  C  C485  1  0.28350000  0.30370000  0.65000000  1
  C  C486  1  0.68420000  0.30380000  0.73430000  1
  C  C487  1  0.97770000  0.30600000  0.39270000  1
  C  C488  1  0.71430000  0.30870000  0.70210000  1
  C  C489  1  0.53880000  0.31030000  0.09840000  1
  C  C490  1  0.27220000  0.31040000  0.68370000  1
  C  C491  1  0.88550000  0.31060000  0.70360000  1
  C  C492  1  0.12550000  0.31070000  0.67570000  1
  C  C493  1  0.40110000  0.31150000  0.88290000  1
  C  C494  1  0.91850000  0.31220000  0.67780000  1
  C  C495  1  0.30180000  0.31550000  0.88520000  1
  C  C496  1  0.72230000  0.31580000  0.26570000  1
  C  C497  1  0.53340000  0.31790000  0.88990000  1
  C  C498  1  0.25680000  0.32250000  0.74960000  1
  C  C499  1  0.25420000  0.32320000  0.78010000  1
  C  C500  1  0.30600000  0.32360000  0.39270000  1
  C  C501  1  0.30170000  0.32600000  0.45370000  1
  C  C502  1  0.84240000  0.32640000  0.53750000  1
  C  C503  1  0.29820000  0.32780000  0.48620000  1
  C  C504  1  0.67750000  0.32890000  0.25040000  1
  C  C505  1  0.76590000  0.33460000  0.24900000  1
  C  C506  1  0.86810000  0.33590000  0.50400000  1
  C  C507  1  0.43390000  0.33850000  0.88240000  1
  C  C508  1  0.04210000  0.34020000  0.09760000  1
  C  C509  1  0.82640000  0.34240000  0.03750000  1
  C  C510  1  0.69900000  0.34440000  0.58300000  1
  C  C511  1  0.33850000  0.34520000  0.88240000  1
  C  C512  1  0.93070000  0.34850000  0.43740000  1
  C  C513  1  0.63580000  0.34920000  0.78060000  1
  C  C514  1  0.66540000  0.34950000  0.75100000  1
  C  C515  1  0.95910000  0.35180000  0.40760000  1
  C  C516  1  0.67680000  0.35750000  0.21990000  1
  C  C517  1  0.07260000  0.35790000  0.66140000  1
  C  C518  1  0.93860000  0.35900000  0.66310000  1
  C  C519  1  0.52010000  0.35950000  0.11520000  1
  C  C520  1  0.58530000  0.36140000  0.41990000  1
  C  C521  1  0.76560000  0.36420000  0.21940000  1
  C  C522  1  0.63860000  0.36660000  0.58010000  1
  C  C523  1  0.83590000  0.36810000  0.00400000  1
  C  C524  1  0.25650000  0.36920000  0.43830000  1
  C  C525  1  0.62850000  0.36940000  0.20410000  1
  C  C526  1  0.25520000  0.36970000  0.40810000  1
  C  C527  1  0.20200000  0.37150000  0.79590000  1
  C  C528  1  0.34440000  0.37360000  0.58300000  1
  C  C529  1  0.18930000  0.37450000  0.82430000  1
  C  C530  1  0.72030000  0.37580000  0.20410000  1
  C  C531  1  0.81060000  0.38550000  0.20360000  1
  C  C532  1  0.79820000  0.38780000  0.98620000  1
  C  C533  1  0.62550000  0.38810000  0.17570000  1
  C  C534  1  0.99920000  0.39210000  0.11470000  1
  C  C535  1  0.42170000  0.39920000  0.58120000  1
  C  C536  1  0.61450000  0.39970000  0.79640000  1
  C  C537  1  0.40450000  0.40110000  0.88290000  1
  C  C538  1  0.97250000  0.40170000  0.39240000  1
  C  C539  1  0.60080000  0.40210000  0.41880000  1
  C  C540  1  0.31150000  0.40450000  0.88290000  1
  C  C541  1  0.76460000  0.40520000  0.10590000  1
  C  C542  1  0.57260000  0.40810000  0.16140000  1
  C  C543  1  0.58150000  0.40850000  0.82220000  1
  C  C544  1  0.20580000  0.41280000  0.39210000  1
  C  C545  1  0.50770000  0.41310000  0.57940000  1
  C  C546  1  0.36660000  0.41470000  0.58010000  1
  C  C547  1  0.81220000  0.41850000  0.17780000  1
  C  C548  1  0.80170000  0.41860000  0.95370000  1
  C  C549  1  0.59790000  0.42170000  0.58120000  1
  C  C550  1  0.14210000  0.42740000  0.83860000  1
  C  C551  1  0.84850000  0.43070000  0.93740000  1
  C  C552  1  0.34520000  0.43390000  0.88240000  1
  C  C553  1  0.75650000  0.43600000  0.93830000  1
  C  C554  1  0.85900000  0.43860000  0.16310000  1
  C  C555  1  0.44790000  0.43910000  0.57940000  1
  C  C556  1  0.96120000  0.44750000  0.40160000  1
  C  C557  1  0.53360000  0.44790000  0.57940000  1
  C  C558  1  0.15980000  0.45790000  0.40240000  1
  C  C559  1  0.85180000  0.45910000  0.90760000  1
  C  C560  1  0.56140000  0.46070000  0.83690000  1
  C  C561  1  0.94750000  0.46120000  0.90160000  1
  C  C562  1  0.56090000  0.46640000  0.42060000  1
  C  C563  1  0.74120000  0.46660000  0.11010000  1
  C  C564  1  0.75520000  0.46700000  0.90810000  1
  C  C565  1  0.90170000  0.47250000  0.89240000  1
  C  C566  1  0.80600000  0.47770000  0.89270000  1
  C  C567  1  0.65980000  0.47990000  0.90240000  1
  C  C568  1  0.99480000  0.47990000  0.88480000  1
  C  C569  1  0.70580000  0.48930000  0.89210000  1
  C  C570  1  0.50020000  0.49230000  0.42060000  1
  C  C571  1  0.39210000  0.49400000  0.11470000  1
  C  C572  1  0.97990000  0.49480000  0.38480000  1
  C  C573  1  0.31550000  0.49750000  0.88520000  1
  C  C574  1  0.89210000  0.49920000  0.61470000  1
  C  C575  1  0.41310000  0.49980000  0.57940000  1
  C  C576  1  0.58690000  0.50020000  0.42060000  1
  C  C577  1  0.10790000  0.50080000  0.38530000  1
  C  C578  1  0.68450000  0.50250000  0.11480000  1
  C  C579  1  0.02010000  0.50520000  0.61520000  1
  C  C580  1  0.60790000  0.50600000  0.88530000  1
  C  C581  1  0.49980000  0.50770000  0.57940000  1
  C  C582  1  0.29420000  0.51070000  0.10790000  1
  C  C583  1  0.00520000  0.52010000  0.11520000  1
  C  C584  1  0.34020000  0.52010000  0.09760000  1
  C  C585  1  0.19400000  0.52230000  0.10730000  1
  C  C586  1  0.09830000  0.52750000  0.10760000  1
  C  C587  1  0.24480000  0.53300000  0.09190000  1
  C  C588  1  0.25880000  0.53340000  0.88990000  1
  C  C589  1  0.43910000  0.53360000  0.57940000  1
  C  C590  1  0.05250000  0.53880000  0.09840000  1
  C  C591  1  0.43860000  0.53930000  0.16310000  1
  C  C592  1  0.14820000  0.54090000  0.09240000  1
  C  C593  1  0.84020000  0.54210000  0.59760000  1
  C  C594  1  0.46640000  0.55210000  0.42060000  1
  C  C595  1  0.03880000  0.55250000  0.59840000  1
  C  C596  1  0.55210000  0.56090000  0.42060000  1
  C  C597  1  0.14100000  0.56140000  0.83690000  1
  C  C598  1  0.24350000  0.56400000  0.06170000  1
  C  C599  1  0.65480000  0.56610000  0.11760000  1
  C  C600  1  0.15150000  0.56930000  0.06260000  1
  C  C601  1  0.85790000  0.57260000  0.16140000  1
  C  C602  1  0.40210000  0.57830000  0.41880000  1
  C  C603  1  0.19830000  0.58140000  0.04630000  1
  C  C604  1  0.18780000  0.58150000  0.82220000  1
  C  C605  1  0.63340000  0.58530000  0.41990000  1
  C  C606  1  0.49230000  0.58690000  0.42060000  1
  C  C607  1  0.79420000  0.58720000  0.60790000  1
  C  C608  1  0.41850000  0.59150000  0.17780000  1
  C  C609  1  0.42740000  0.59190000  0.83860000  1
  C  C610  1  0.23540000  0.59480000  0.89410000  1
  C  C611  1  0.68850000  0.59550000  0.11710000  1
  C  C612  1  0.39920000  0.59790000  0.58120000  1
  C  C613  1  0.02750000  0.59830000  0.60760000  1
  C  C614  1  0.59550000  0.59890000  0.11710000  1
  C  C615  1  0.38550000  0.60030000  0.20360000  1
  C  C616  1  0.57830000  0.60080000  0.41880000  1
  C  C617  1  0.00080000  0.60790000  0.88530000  1
  C  C618  1  0.37450000  0.61190000  0.82430000  1
  C  C619  1  0.20180000  0.61220000  0.01380000  1
  C  C620  1  0.18940000  0.61450000  0.79640000  1
  C  C621  1  0.27970000  0.62420000  0.79590000  1
  C  C622  1  0.81070000  0.62550000  0.17570000  1
  C  C623  1  0.65560000  0.62640000  0.41700000  1
  C  C624  1  0.79800000  0.62850000  0.20410000  1
  C  C625  1  0.74480000  0.63030000  0.59190000  1
  C  C626  1  0.37150000  0.63060000  0.79590000  1
  C  C627  1  0.74350000  0.63080000  0.56170000  1
  C  C628  1  0.16410000  0.63190000  0.99600000  1
  C  C629  1  0.36140000  0.63340000  0.41990000  1
  C  C630  1  0.23440000  0.63580000  0.78060000  1
  C  C631  1  0.41470000  0.63860000  0.58010000  1
  C  C632  1  0.47990000  0.64050000  0.88480000  1
  C  C633  1  0.06140000  0.64100000  0.33690000  1
  C  C634  1  0.92740000  0.64210000  0.33860000  1
  C  C635  1  0.32320000  0.64250000  0.78010000  1
  C  C636  1  0.04090000  0.64820000  0.59240000  1
  C  C637  1  0.33460000  0.65050000  0.24900000  1
  C  C638  1  0.36420000  0.65080000  0.21940000  1
  C  C639  1  0.06930000  0.65150000  0.56260000  1
  C  C640  1  0.66150000  0.65480000  0.11760000  1
  C  C641  1  0.30100000  0.65560000  0.41700000  1
  C  C642  1  0.17360000  0.65760000  0.96250000  1
  C  C643  1  0.95790000  0.65980000  0.90240000  1
  C  C644  1  0.56610000  0.66150000  0.11760000  1
  C  C645  1  0.13190000  0.66410000  0.49600000  1
  C  C646  1  0.23410000  0.66540000  0.75100000  1
  C  C647  1  0.32250000  0.67110000  0.74960000  1
  C  C648  1  0.70180000  0.67220000  0.51380000  1
  C  C649  1  0.15760000  0.67360000  0.46250000  1
  C  C650  1  0.69830000  0.67400000  0.54630000  1
  C  C651  1  0.69400000  0.67640000  0.60730000  1
  C  C652  1  0.74580000  0.67680000  0.21990000  1
  C  C653  1  0.74320000  0.67750000  0.25040000  1
  C  C654  1  0.46660000  0.68210000  0.11010000  1
  C  C655  1  0.27770000  0.68420000  0.73430000  1
  C  C656  1  0.69820000  0.68450000  0.11480000  1
  C  C657  1  0.08150000  0.68780000  0.32220000  1
  C  C658  1  0.59890000  0.68850000  0.11710000  1
  C  C659  1  0.87450000  0.68930000  0.32430000  1
  C  C660  1  0.11450000  0.68940000  0.29640000  1
  C  C661  1  0.72780000  0.68960000  0.31630000  1
  C  C662  1  0.46120000  0.68970000  0.90160000  1
  C  C663  1  0.28570000  0.69130000  0.29790000  1
  C  C664  1  0.02230000  0.69400000  0.60730000  1
  C  C665  1  0.31580000  0.69620000  0.26570000  1
  C  C666  1  0.71650000  0.69630000  0.35000000  1
  C  C667  1  0.50250000  0.69820000  0.11480000  1
  C  C668  1  0.08140000  0.69830000  0.54630000  1
  C  C669  1  0.37360000  0.69900000  0.58300000  1
  C  C670  1  0.37580000  0.69980000  0.20410000  1
  C  C671  1  0.11220000  0.70180000  0.51380000  1
  C  C672  1  0.87150000  0.70200000  0.29590000  1
  C  C673  1  0.91280000  0.70580000  0.89210000  1
  C  C674  1  0.67360000  0.70630000  0.46250000  1
  C  C675  1  0.66410000  0.70800000  0.49600000  1
  C  C676  1  0.27490000  0.71430000  0.70210000  1
  C  C677  1  0.23720000  0.71650000  0.35000000  1
  C  C678  1  0.65150000  0.71660000  0.56260000  1
  C  C679  1  0.64820000  0.71850000  0.59240000  1
  C  C680  1  0.69980000  0.72030000  0.20410000  1
  C  C681  1  0.69620000  0.72230000  0.26570000  1
  C  C682  1  0.40520000  0.72430000  0.10590000  1
  C  C683  1  0.69130000  0.72510000  0.29790000  1
  C  C684  1  0.26630000  0.72780000  0.31630000  1
  C  C685  1  0.47250000  0.73340000  0.89240000  1
  C  C686  1  0.31040000  0.73370000  0.68370000  1
  C  C687  1  0.16540000  0.73410000  0.25100000  1
  C  C688  1  0.13580000  0.73440000  0.28060000  1
  C  C689  1  0.09480000  0.73540000  0.39410000  1
  C  C690  1  0.21650000  0.73720000  0.85000000  1
  C  C691  1  0.68210000  0.74120000  0.11010000  1
  C  C692  1  0.32890000  0.74320000  0.25040000  1
  C  C693  1  0.06400000  0.74350000  0.56170000  1
  C  C694  1  0.03300000  0.74480000  0.59190000  1
  C  C695  1  0.35750000  0.74580000  0.21990000  1
  C  C696  1  0.82320000  0.75420000  0.28010000  1
  C  C697  1  0.86970000  0.75520000  0.90810000  1
  C  C698  1  0.86920000  0.75650000  0.93830000  1
  C  C699  1  0.82250000  0.75680000  0.24960000  1
  C  C700  1  0.03340000  0.75880000  0.38990000  1
  C  C701  1  0.30370000  0.76280000  0.65000000  1
  C  C702  1  0.72430000  0.76460000  0.10590000  1
  C  C703  1  0.65080000  0.76560000  0.21940000  1
  C  C704  1  0.65050000  0.76590000  0.24900000  1
  C  C705  1  0.22780000  0.76630000  0.81630000  1
  C  C706  1  0.59830000  0.76660000  0.60760000  1
  C  C707  1  0.81040000  0.77220000  0.18370000  1
  C  C708  1  0.21430000  0.77490000  0.20210000  1
  C  C709  1  0.73540000  0.77570000  0.39410000  1
  C  C710  1  0.18420000  0.77770000  0.23430000  1
  C  C711  1  0.12420000  0.77970000  0.29590000  1
  C  C712  1  0.45910000  0.78150000  0.90760000  1
  C  C713  1  0.43070000  0.78340000  0.93740000  1
  C  C714  1  0.80370000  0.78350000  0.15000000  1
  C  C715  1  0.19130000  0.78570000  0.79790000  1
  C  C716  1  0.36810000  0.79200000  0.00400000  1
  C  C717  1  0.34240000  0.79370000  0.03750000  1
  C  C718  1  0.01070000  0.79420000  0.60790000  1
  C  C719  1  0.36940000  0.79800000  0.20410000  1
  C  C720  1  0.82780000  0.79820000  0.98620000  1
  C  C721  1  0.77970000  0.80020000  0.29590000  1
  C  C722  1  0.15560000  0.80100000  0.91700000  1
  C  C723  1  0.82600000  0.80170000  0.95370000  1
  C  C724  1  0.81550000  0.80180000  0.38520000  1
  C  C725  1  0.26280000  0.80370000  0.15000000  1
  C  C726  1  0.77770000  0.80380000  0.23430000  1
  C  C727  1  0.82360000  0.80600000  0.89270000  1
  C  C728  1  0.77490000  0.80870000  0.20210000  1
  C  C729  1  0.55250000  0.81030000  0.59840000  1
  C  C730  1  0.23370000  0.81040000  0.18370000  1
  C  C731  1  0.60030000  0.81060000  0.20360000  1
  C  C732  1  0.38810000  0.81070000  0.17570000  1
  C  C733  1  0.90450000  0.81150000  0.38290000  1
  C  C734  1  0.59150000  0.81220000  0.17780000  1
  C  C735  1  0.99750000  0.81550000  0.38520000  1
  C  C736  1  0.19620000  0.81580000  0.76570000  1
  C  C737  1  0.75880000  0.81790000  0.38990000  1
  C  C738  1  0.17110000  0.82250000  0.24960000  1
  C  C739  1  0.14250000  0.82320000  0.28010000  1
  C  C740  1  0.47770000  0.82360000  0.89270000  1
  C  C741  1  0.41860000  0.82600000  0.95370000  1
  C  C742  1  0.79370000  0.82640000  0.03750000  1
  C  C743  1  0.38780000  0.82780000  0.98620000  1
  C  C744  1  0.24320000  0.82890000  0.75040000  1
  C  C745  1  0.15050000  0.83460000  0.74900000  1
  C  C746  1  0.79200000  0.83590000  0.00400000  1
  C  C747  1  0.84520000  0.83850000  0.38240000  1
  C  C748  1  0.02010000  0.84020000  0.59760000  1
  C  C749  1  0.29370000  0.84240000  0.53750000  1
  C  C750  1  0.87360000  0.84440000  0.08300000  1
  C  C751  1  0.93390000  0.84520000  0.38240000  1
  C  C752  1  0.78340000  0.84850000  0.93740000  1
  C  C753  1  0.73440000  0.84920000  0.28060000  1
  C  C754  1  0.73410000  0.84950000  0.25100000  1
  C  C755  1  0.78150000  0.85180000  0.90760000  1
  C  C756  1  0.24580000  0.85750000  0.71990000  1
  C  C757  1  0.40810000  0.85790000  0.16140000  1
  C  C758  1  0.53930000  0.85900000  0.16310000  1
  C  C759  1  0.50520000  0.85950000  0.61520000  1
  C  C760  1  0.13340000  0.86140000  0.91990000  1
  C  C761  1  0.15080000  0.86420000  0.71940000  1
  C  C762  1  0.91470000  0.86660000  0.08010000  1
  C  C763  1  0.29200000  0.86810000  0.50400000  1
  C  C764  1  0.43600000  0.86920000  0.93830000  1
  C  C765  1  0.29800000  0.86940000  0.70410000  1
  C  C766  1  0.46700000  0.86970000  0.90810000  1
  C  C767  1  0.13060000  0.87150000  0.29590000  1
  C  C768  1  0.19900000  0.87360000  0.08300000  1
  C  C769  1  0.11190000  0.87450000  0.32430000  1
  C  C770  1  0.19980000  0.87580000  0.70410000  1
  C  C771  1  0.10030000  0.88550000  0.70360000  1
  C  C772  1  0.32780000  0.88780000  0.48620000  1
  C  C773  1  0.31070000  0.88810000  0.67570000  1
  C  C774  1  0.99400000  0.89210000  0.61470000  1
  C  C775  1  0.09790000  0.89920000  0.08120000  1
  C  C776  1  0.68940000  0.89970000  0.29640000  1
  C  C777  1  0.81150000  0.90110000  0.38290000  1
  C  C778  1  0.73340000  0.90170000  0.89240000  1
  C  C779  1  0.07830000  0.90210000  0.91880000  1
  C  C780  1  0.90110000  0.90450000  0.38290000  1
  C  C781  1  0.22430000  0.90520000  0.60590000  1
  C  C782  1  0.35790000  0.90810000  0.66140000  1
  C  C783  1  0.68780000  0.90850000  0.32220000  1
  C  C784  1  0.48930000  0.91280000  0.89210000  1
  C  C785  1  0.99980000  0.91310000  0.07940000  1
  C  C786  1  0.13860000  0.91470000  0.08010000  1
  C  C787  1  0.09150000  0.91850000  0.67780000  1
  C  C788  1  0.32600000  0.91860000  0.45370000  1
  C  C789  1  0.89920000  0.92170000  0.08120000  1
  C  C790  1  0.09190000  0.92740000  0.33860000  1
  C  C791  1  0.28340000  0.93070000  0.43740000  1
  C  C792  1  0.83850000  0.93390000  0.38240000  1
  C  C793  1  0.36920000  0.93600000  0.43830000  1
  C  C794  1  0.03930000  0.93860000  0.66310000  1
  C  C795  1  0.03360000  0.93910000  0.07940000  1
  C  C796  1  0.68970000  0.94750000  0.90160000  1
  C  C797  1  0.93910000  0.94790000  0.07940000  1
  C  C798  1  0.47990000  0.95790000  0.90240000  1
  C  C799  1  0.28150000  0.95910000  0.40760000  1
  C  C800  1  0.64100000  0.96070000  0.33690000  1
  C  C801  1  0.18970000  0.96120000  0.40160000  1
  C  C802  1  0.05210000  0.96640000  0.92060000  1
  C  C803  1  0.18210000  0.96660000  0.61010000  1
  C  C804  1  0.36970000  0.96700000  0.40810000  1
  C  C805  1  0.23340000  0.97250000  0.39240000  1
  C  C806  1  0.32360000  0.97770000  0.39270000  1
  C  C807  1  0.14050000  0.97990000  0.38480000  1
  C  C808  1  0.45790000  0.97990000  0.40240000  1
  C  C809  1  0.41280000  0.98930000  0.39210000  1
  C  C810  1  0.08690000  0.99230000  0.92060000  1
  C  C811  1  0.49920000  0.99400000  0.61470000  1
  C  C812  1  0.64050000  0.99480000  0.88480000  1
  C  C813  1  0.80180000  0.99750000  0.38520000  1
  C  C814  1  0.49400000  0.99920000  0.11470000  1
  C  C815  1  0.00770000  0.99980000  0.07940000  1
  O  O816  1  0.60180000  0.00100000  0.32140000  1
  O  O817  1  0.14320000  0.00780000  0.35840000  1
  O  O818  1  0.46490000  0.00790000  0.14050000  1
  O  O819  1  0.46000000  0.00840000  0.59920000  1
  O  O820  1  0.35680000  0.00940000  0.14160000  1
  O  O821  1  0.96230000  0.02740000  0.36270000  1
  O  O822  1  0.90280000  0.03130000  0.59890000  1
  O  O823  1  0.89430000  0.03260000  0.67790000  1
  O  O824  1  0.59720000  0.03300000  0.90110000  1
  O  O825  1  0.49210000  0.03510000  0.35950000  1
  O  O826  1  0.35240000  0.03770000  0.63730000  1
  O  O827  1  0.49160000  0.04000000  0.90080000  1
  O  O828  1  0.64330000  0.06480000  0.36550000  1
  O  O829  1  0.99160000  0.06760000  0.40080000  1
  O  O830  1  0.93520000  0.07360000  0.63450000  1
  O  O831  1  0.00100000  0.07580000  0.32140000  1
  O  O832  1  0.53300000  0.09720000  0.40110000  1
  O  O833  1  0.50100000  0.10180000  0.82140000  1
  O  O834  1  0.60570000  0.10480000  0.82210000  1
  O  O835  1  0.60480000  0.10570000  0.32210000  1
  O  O836  1  0.76690000  0.10590000  0.91740000  1
  O  O837  1  0.72130000  0.10910000  0.39710000  1
  O  O838  1  0.03510000  0.11330000  0.35950000  1
  O  O839  1  0.18140000  0.12060000  0.91180000  1
  O  O840  1  0.79680000  0.12680000  0.39600000  1
  O  O841  1  0.23990000  0.13290000  0.94810000  1
  O  O842  1  0.49060000  0.14320000  0.35840000  1
  O  O843  1  0.56480000  0.14330000  0.86550000  1
  O  O844  1  0.46230000  0.14760000  0.86270000  1
  O  O845  1  0.66760000  0.15690000  0.45180000  1
  O  O846  1  0.72040000  0.15810000  0.86460000  1
  O  O847  1  0.65690000  0.16760000  0.95180000  1
  O  O848  1  0.23710000  0.16970000  0.85920000  1
  O  O849  1  0.73990000  0.17910000  0.44810000  1
  O  O850  1  0.29680000  0.18040000  0.89600000  1
  O  O851  1  0.78620000  0.18140000  0.91180000  1
  O  O852  1  0.31960000  0.20320000  0.60400000  1
  O  O853  1  0.10590000  0.20980000  0.91740000  1
  O  O854  1  0.87940000  0.21380000  0.08820000  1
  O  O855  1  0.65810000  0.22040000  0.36460000  1
  O  O856  1  0.60910000  0.22130000  0.89710000  1
  O  O857  1  0.16760000  0.22370000  0.95180000  1
  O  O858  1  0.89090000  0.22750000  0.60290000  1
  O  O859  1  0.79020000  0.23310000  0.08260000  1
  O  O860  1  0.73710000  0.23400000  0.35920000  1
  O  O861  1  0.73400000  0.23710000  0.85920000  1
  O  O862  1  0.67910000  0.23990000  0.94810000  1
  O  O863  1  0.77960000  0.24310000  0.63540000  1
  O  O864  1  0.15810000  0.25690000  0.86460000  1
  O  O865  1  0.36710000  0.26010000  0.55190000  1
  O  O866  1  0.33030000  0.26290000  0.64080000  1
  O  O867  1  0.83030000  0.26600000  0.14080000  1
  O  O868  1  0.60590000  0.26690000  0.41740000  1
  O  O869  1  0.22130000  0.27250000  0.89710000  1
  O  O870  1  0.84310000  0.27630000  0.54820000  1
  O  O871  1  0.22750000  0.27870000  0.60290000  1
  O  O872  1  0.74310000  0.27960000  0.13540000  1
  O  O873  1  0.68140000  0.28620000  0.41180000  1
  O  O874  1  0.73310000  0.29020000  0.58260000  1
  O  O875  1  0.62680000  0.29680000  0.89600000  1
  O  O876  1  0.37940000  0.31860000  0.58820000  1
  O  O877  1  0.87320000  0.31960000  0.60400000  1
  O  O878  1  0.86710000  0.32090000  0.05190000  1
  O  O879  1  0.76600000  0.33030000  0.64080000  1
  O  O880  1  0.27630000  0.33240000  0.54820000  1
  O  O881  1  0.24310000  0.34190000  0.63540000  1
  O  O882  1  0.77630000  0.34310000  0.04820000  1
  O  O883  1  0.97260000  0.35240000  0.63730000  1
  O  O884  1  0.07360000  0.35670000  0.63450000  1
  O  O885  1  0.49220000  0.35680000  0.14160000  1
  O  O886  1  0.82090000  0.36710000  0.55190000  1
  O  O887  1  0.81960000  0.37320000  0.10400000  1
  O  O888  1  0.71380000  0.37940000  0.58820000  1
  O  O889  1  0.00790000  0.38670000  0.14050000  1
  O  O890  1  0.72750000  0.39090000  0.10290000  1
  O  O891  1  0.29020000  0.39410000  0.58260000  1
  O  O892  1  0.53260000  0.39430000  0.17790000  1
  O  O893  1  0.03260000  0.39520000  0.67790000  1
  O  O894  1  0.92420000  0.39820000  0.67860000  1
  O  O895  1  0.53130000  0.40280000  0.09890000  1
  O  O896  1  0.89820000  0.42420000  0.17860000  1
  O  O897  1  0.14330000  0.42640000  0.86550000  1
  O  O898  1  0.96000000  0.43240000  0.09920000  1
  O  O899  1  0.57360000  0.43520000  0.13450000  1
  O  O900  1  0.93240000  0.46000000  0.59920000  1
  O  O901  1  0.52740000  0.46230000  0.86270000  1
  O  O902  1  0.38670000  0.46490000  0.14050000  1
  O  O903  1  0.03130000  0.46700000  0.59890000  1
  O  O904  1  0.10480000  0.46740000  0.82210000  1
  O  O905  1  0.03300000  0.46870000  0.90110000  1
  O  O906  1  0.85240000  0.47260000  0.13730000  1
  O  O907  1  0.00780000  0.49060000  0.35840000  1
  O  O908  1  0.56760000  0.49160000  0.90080000  1
  O  O909  1  0.11330000  0.49210000  0.35950000  1
  O  O910  1  0.00940000  0.49220000  0.14160000  1
  O  O911  1  0.42420000  0.49900000  0.17860000  1
  O  O912  1  0.57580000  0.50100000  0.82140000  1
  O  O913  1  0.99060000  0.50780000  0.85840000  1
  O  O914  1  0.88670000  0.50790000  0.64050000  1
  O  O915  1  0.43240000  0.50840000  0.09920000  1
  O  O916  1  0.99220000  0.50940000  0.64160000  1
  O  O917  1  0.14760000  0.52740000  0.86270000  1
  O  O918  1  0.96700000  0.53130000  0.09890000  1
  O  O919  1  0.89520000  0.53260000  0.17790000  1
  O  O920  1  0.96870000  0.53300000  0.40110000  1
  O  O921  1  0.61330000  0.53510000  0.85950000  1
  O  O922  1  0.47260000  0.53770000  0.13730000  1
  O  O923  1  0.06760000  0.54000000  0.40080000  1
  O  O924  1  0.42640000  0.56480000  0.86550000  1
  O  O925  1  0.04000000  0.56760000  0.90080000  1
  O  O926  1  0.85670000  0.57360000  0.13450000  1
  O  O927  1  0.10180000  0.57580000  0.82140000  1
  O  O928  1  0.46870000  0.59720000  0.90110000  1
  O  O929  1  0.07580000  0.60180000  0.32140000  1
  O  O930  1  0.96740000  0.60480000  0.32210000  1
  O  O931  1  0.46740000  0.60570000  0.82210000  1
  O  O932  1  0.70980000  0.60590000  0.41740000  1
  O  O933  1  0.27250000  0.60910000  0.89710000  1
  O  O934  1  0.99210000  0.61330000  0.85950000  1
  O  O935  1  0.28620000  0.62060000  0.41180000  1
  O  O936  1  0.18040000  0.62680000  0.89600000  1
  O  O937  1  0.17910000  0.63290000  0.44810000  1
  O  O938  1  0.50780000  0.64320000  0.85840000  1
  O  O939  1  0.92640000  0.64330000  0.36550000  1
  O  O940  1  0.02740000  0.64760000  0.36270000  1
  O  O941  1  0.22370000  0.65690000  0.95180000  1
  O  O942  1  0.75690000  0.65810000  0.36460000  1
  O  O943  1  0.72370000  0.66760000  0.45180000  1
  O  O944  1  0.23400000  0.66970000  0.35920000  1
  O  O945  1  0.13290000  0.67910000  0.94810000  1
  O  O946  1  0.12680000  0.68040000  0.39600000  1
  O  O947  1  0.62060000  0.68140000  0.41180000  1
  O  O948  1  0.37320000  0.70320000  0.10400000  1
  O  O949  1  0.26690000  0.70980000  0.41740000  1
  O  O950  1  0.31860000  0.71380000  0.58820000  1
  O  O951  1  0.25690000  0.72040000  0.86460000  1
  O  O952  1  0.77250000  0.72130000  0.39710000  1
  O  O953  1  0.15690000  0.72370000  0.45180000  1
  O  O954  1  0.77870000  0.72750000  0.10290000  1
  O  O955  1  0.39410000  0.73310000  0.58260000  1
  O  O956  1  0.16970000  0.73400000  0.85920000  1
  O  O957  1  0.66970000  0.73710000  0.35920000  1
  O  O958  1  0.63290000  0.73990000  0.44810000  1
  O  O959  1  0.84190000  0.74310000  0.13540000  1
  O  O960  1  0.22040000  0.75690000  0.36460000  1
  O  O961  1  0.32090000  0.76010000  0.05190000  1
  O  O962  1  0.26600000  0.76290000  0.14080000  1
  O  O963  1  0.26290000  0.76600000  0.64080000  1
  O  O964  1  0.20980000  0.76690000  0.91740000  1
  O  O965  1  0.10910000  0.77250000  0.39710000  1
  O  O966  1  0.83240000  0.77630000  0.04820000  1
  O  O967  1  0.39090000  0.77870000  0.10290000  1
  O  O968  1  0.34190000  0.77960000  0.63540000  1
  O  O969  1  0.12060000  0.78620000  0.91180000  1
  O  O970  1  0.89410000  0.79020000  0.08260000  1
  O  O971  1  0.68040000  0.79680000  0.39600000  1
  O  O972  1  0.21380000  0.81860000  0.08820000  1
  O  O973  1  0.70320000  0.81960000  0.10400000  1
  O  O974  1  0.26010000  0.82090000  0.55190000  1
  O  O975  1  0.76290000  0.83030000  0.14080000  1
  O  O976  1  0.34310000  0.83240000  0.04820000  1
  O  O977  1  0.27960000  0.84190000  0.13540000  1
  O  O978  1  0.33240000  0.84310000  0.54820000  1
  O  O979  1  0.53770000  0.85240000  0.13730000  1
  O  O980  1  0.43520000  0.85670000  0.13450000  1
  O  O981  1  0.50940000  0.85680000  0.64160000  1
  O  O982  1  0.76010000  0.86710000  0.05190000  1
  O  O983  1  0.20320000  0.87320000  0.60400000  1
  O  O984  1  0.81860000  0.87940000  0.08820000  1
  O  O985  1  0.96490000  0.88670000  0.64050000  1
  O  O986  1  0.27870000  0.89090000  0.60290000  1
  O  O987  1  0.23310000  0.89410000  0.08260000  1
  O  O988  1  0.39520000  0.89430000  0.67790000  1
  O  O989  1  0.39430000  0.89520000  0.17790000  1
  O  O990  1  0.49900000  0.89820000  0.17860000  1
  O  O991  1  0.46700000  0.90280000  0.59890000  1
  O  O992  1  0.99900000  0.92420000  0.67860000  1
  O  O993  1  0.06480000  0.92640000  0.36550000  1
  O  O994  1  0.00840000  0.93240000  0.59920000  1
  O  O995  1  0.35670000  0.93520000  0.63450000  1
  O  O996  1  0.50840000  0.96000000  0.09920000  1
  O  O997  1  0.64760000  0.96230000  0.36270000  1
  O  O998  1  0.50790000  0.96490000  0.64050000  1
  O  O999  1  0.40280000  0.96700000  0.09890000  1
  O  O1000  1  0.10570000  0.96740000  0.32210000  1
  O  O1001  1  0.09720000  0.96870000  0.40110000  1
  O  O1002  1  0.03770000  0.97260000  0.63730000  1
  O  O1003  1  0.64320000  0.99060000  0.85840000  1
  O  O1004  1  0.54000000  0.99160000  0.40080000  1
  O  O1005  1  0.53510000  0.99210000  0.85950000  1
  O  O1006  1  0.85680000  0.99220000  0.64160000  1
  O  O1007  1  0.39820000  0.99900000  0.67860000  1
