# generated using pymatgen
data_Mn(C2N3)3
_symmetry_space_group_name_H-M   'P 1'
_cell_length_a   10.09800000
_cell_length_b   12.15600000
_cell_length_c   17.11900000
_cell_angle_alpha   90.00000000
_cell_angle_beta   96.32000000
_cell_angle_gamma   90.00000000
_symmetry_Int_Tables_number   1
_chemical_formula_structural   Mn(C2N3)3
_chemical_formula_sum   'Mn4 C24 N36'
_cell_volume   2088.60835654
_cell_formula_units_Z   4
loop_
 _symmetry_equiv_pos_site_id
 _symmetry_equiv_pos_as_xyz
  1  'x, y, z'
loop_
 _atom_site_type_symbol
 _atom_site_label
 _atom_site_symmetry_multiplicity
 _atom_site_fract_x
 _atom_site_fract_y
 _atom_site_fract_z
 _atom_site_occupancy
  Mn  Mn0  1  0.26890000  0.22545000  0.78770000  1
  Mn  Mn1  1  0.26890000  0.27455000  0.28770000  1
  Mn  Mn2  1  0.73110000  0.72545000  0.71230000  1
  Mn  Mn3  1  0.73110000  0.77455000  0.21230000  1
  C  C4  1  0.03750000  0.63040000  0.72090000  1
  C  C5  1  0.03750000  0.86960000  0.22090000  1
  C  C6  1  0.17740000  0.01310000  0.24911000  1
  C  C7  1  0.17740000  0.48690000  0.74911000  1
  C  C8  1  0.24140000  0.16140000  0.59669000  1
  C  C9  1  0.24140000  0.33860000  0.09669000  1
  C  C10  1  0.26820000  0.18340000  0.46833000  1
  C  C11  1  0.26820000  0.31660000  0.96833000  1
  C  C12  1  0.34740000  0.53730000  0.30714000  1
  C  C13  1  0.34740000  0.96270000  0.80714000  1
  C  C14  1  0.45000000  0.68580000  0.26342000  1
  C  C15  1  0.45000000  0.81420000  0.76342000  1
  C  C16  1  0.55000000  0.18580000  0.23658000  1
  C  C17  1  0.55000000  0.31420000  0.73658000  1
  C  C18  1  0.65260000  0.03730000  0.19286000  1
  C  C19  1  0.65260000  0.46270000  0.69286000  1
  C  C20  1  0.73180000  0.68340000  0.03167000  1
  C  C21  1  0.73180000  0.81660000  0.53167000  1
  C  C22  1  0.75860000  0.66140000  0.90331000  1
  C  C23  1  0.75860000  0.83860000  0.40331000  1
  C  C24  1  0.82260000  0.51310000  0.25089000  1
  C  C25  1  0.82260000  0.98690000  0.75089000  1
  C  C26  1  0.96250000  0.13040000  0.77910000  1
  C  C27  1  0.96250000  0.36960000  0.27910000  1
  N  N28  1  0.05920000  0.17590000  0.79390000  1
  N  N29  1  0.05920000  0.32410000  0.29390000  1
  N  N30  1  0.15660000  0.59090000  0.73580000  1
  N  N31  1  0.15660000  0.90910000  0.23580000  1
  N  N32  1  0.20850000  0.10190000  0.26072000  1
  N  N33  1  0.20850000  0.39810000  0.76072000  1
  N  N34  1  0.23300000  0.12430000  0.52569000  1
  N  N35  1  0.23300000  0.37570000  0.02569000  1
  N  N36  1  0.24290000  0.18390000  0.66053000  1
  N  N37  1  0.24290000  0.31610000  0.16053000  1
  N  N38  1  0.29470000  0.22530000  0.41330000  1
  N  N39  1  0.29470000  0.27470000  0.91330000  1
  N  N40  1  0.32640000  0.05360000  0.81529000  1
  N  N41  1  0.32640000  0.44640000  0.31529000  1
  N  N42  1  0.36270000  0.64330000  0.30480000  1
  N  N43  1  0.36270000  0.85670000  0.80480000  1
  N  N44  1  0.47860000  0.23110000  0.27260000  1
  N  N45  1  0.47860000  0.26890000  0.77260000  1
  N  N46  1  0.52140000  0.73110000  0.22740000  1
  N  N47  1  0.52140000  0.76890000  0.72740000  1
  N  N48  1  0.63730000  0.14330000  0.19520000  1
  N  N49  1  0.63730000  0.35670000  0.69520000  1
  N  N50  1  0.67360000  0.55360000  0.68471000  1
  N  N51  1  0.67360000  0.94640000  0.18471000  1
  N  N52  1  0.70530000  0.72530000  0.08670000  1
  N  N53  1  0.70530000  0.77470000  0.58670000  1
  N  N54  1  0.75710000  0.68390000  0.83947000  1
  N  N55  1  0.75710000  0.81610000  0.33947000  1
  N  N56  1  0.76700000  0.62430000  0.97431000  1
  N  N57  1  0.76700000  0.87570000  0.47431000  1
  N  N58  1  0.79150000  0.60190000  0.23928000  1
  N  N59  1  0.79150000  0.89810000  0.73928000  1
  N  N60  1  0.84340000  0.09090000  0.76420000  1
  N  N61  1  0.84340000  0.40910000  0.26420000  1
  N  N62  1  0.94080000  0.67590000  0.70610000  1
  N  N63  1  0.94080000  0.82410000  0.20610000  1
