# generated using pymatgen
data_Co3H11C20O11
_symmetry_space_group_name_H-M   'P 1'
_cell_length_a   10.89690000
_cell_length_b   21.02400000
_cell_length_c   28.74100000
_cell_angle_alpha   90.00000000
_cell_angle_beta   90.00000000
_cell_angle_gamma   90.00000000
_symmetry_Int_Tables_number   1
_chemical_formula_structural   Co3H11C20O11
_chemical_formula_sum   'Co24 H88 C160 O88'
_cell_volume   6584.46036817
_cell_formula_units_Z   8
loop_
 _symmetry_equiv_pos_site_id
 _symmetry_equiv_pos_as_xyz
  1  'x, y, z'
loop_
 _atom_site_type_symbol
 _atom_site_label
 _atom_site_symmetry_multiplicity
 _atom_site_fract_x
 _atom_site_fract_y
 _atom_site_fract_z
 _atom_site_occupancy
  Co  Co0  1  0.02182000  0.04329000  0.88625000  1
  Co  Co1  1  0.02182000  0.95671000  0.11375000  1
  Co  Co2  1  0.15107000  0.08264000  0.33799000  1
  Co  Co3  1  0.15107000  0.91736000  0.66201000  1
  Co  Co4  1  0.15189000  0.03497000  0.20370000  1
  Co  Co5  1  0.15189000  0.96503000  0.79630000  1
  Co  Co6  1  0.28964000  0.04333000  0.70682000  1
  Co  Co7  1  0.28964000  0.95667000  0.29318000  1
  Co  Co8  1  0.29572000  0.10443000  0.83614000  1
  Co  Co9  1  0.29572000  0.89557000  0.16386000  1
  Co  Co10  1  0.43156000  0.04350000  0.38044000  1
  Co  Co11  1  0.43156000  0.95650000  0.61956000  1
  Co  Co12  1  0.56844000  0.45650000  0.88044000  1
  Co  Co13  1  0.56844000  0.54350000  0.11956000  1
  Co  Co14  1  0.70428000  0.39557000  0.33614000  1
  Co  Co15  1  0.70428000  0.60443000  0.66386000  1
  Co  Co16  1  0.71036000  0.45667000  0.20682000  1
  Co  Co17  1  0.71036000  0.54333000  0.79318000  1
  Co  Co18  1  0.84811000  0.46503000  0.70370000  1
  Co  Co19  1  0.84811000  0.53497000  0.29630000  1
  Co  Co20  1  0.84893000  0.41736000  0.83799000  1
  Co  Co21  1  0.84893000  0.58264000  0.16201000  1
  Co  Co22  1  0.97818000  0.45671000  0.38625000  1
  Co  Co23  1  0.97818000  0.54329000  0.61375000  1
  H  H24  1  0.00030000  0.34900000  0.96740000  1
  H  H25  1  0.00030000  0.65100000  0.03260000  1
  H  H26  1  0.02510000  0.38550000  0.25970000  1
  H  H27  1  0.02510000  0.61450000  0.74030000  1
  H  H28  1  0.03820000  0.25300000  0.63300000  1
  H  H29  1  0.03820000  0.74700000  0.36700000  1
  H  H30  1  0.04860000  0.12960000  0.60390000  1
  H  H31  1  0.04860000  0.87040000  0.39610000  1
  H  H32  1  0.05310000  0.25750000  0.79330000  1
  H  H33  1  0.05310000  0.74250000  0.20670000  1
  H  H34  1  0.07430000  0.34530000  0.04350000  1
  H  H35  1  0.07430000  0.65470000  0.95650000  1
  H  H36  1  0.08370000  0.17730000  0.17220000  1
  H  H37  1  0.08370000  0.82270000  0.82780000  1
  H  H38  1  0.09090000  0.07660000  0.80780000  1
  H  H39  1  0.09090000  0.92340000  0.19220000  1
  H  H40  1  0.15480000  0.06680000  0.01700000  1
  H  H41  1  0.15480000  0.93320000  0.98300000  1
  H  H42  1  0.17790000  0.18720000  0.67150000  1
  H  H43  1  0.17790000  0.81280000  0.32850000  1
  H  H44  1  0.18280000  0.36540000  0.73280000  1
  H  H45  1  0.18280000  0.63460000  0.26720000  1
  H  H46  1  0.20100000  0.32890000  0.27360000  1
  H  H47  1  0.20100000  0.67110000  0.72640000  1
  H  H48  1  0.21330000  0.49660000  0.82370000  1
  H  H49  1  0.21330000  0.50340000  0.17630000  1
  H  H50  1  0.30440000  0.06700000  0.51660000  1
  H  H51  1  0.30440000  0.93300000  0.48340000  1
  H  H52  1  0.34690000  0.48400000  0.32530000  1
  H  H53  1  0.34690000  0.51600000  0.67470000  1
  H  H54  1  0.34920000  0.07440000  0.30110000  1
  H  H55  1  0.34920000  0.92560000  0.69890000  1
  H  H56  1  0.36950000  0.32990000  0.75820000  1
  H  H57  1  0.36950000  0.67010000  0.24180000  1
  H  H58  1  0.38600000  0.36310000  0.24550000  1
  H  H59  1  0.38600000  0.63690000  0.75450000  1
  H  H60  1  0.40430000  0.13430000  0.10630000  1
  H  H61  1  0.40430000  0.86570000  0.89370000  1
  H  H62  1  0.44590000  0.15900000  0.96830000  1
  H  H63  1  0.44590000  0.84100000  0.03170000  1
  H  H64  1  0.45430000  0.11090000  0.24540000  1
  H  H65  1  0.45430000  0.88910000  0.75460000  1
  H  H66  1  0.47960000  0.32950000  0.54340000  1
  H  H67  1  0.47960000  0.67050000  0.45660000  1
  H  H68  1  0.52040000  0.17050000  0.04340000  1
  H  H69  1  0.52040000  0.82950000  0.95660000  1
  H  H70  1  0.54570000  0.38910000  0.74540000  1
  H  H71  1  0.54570000  0.61090000  0.25460000  1
  H  H72  1  0.55410000  0.34100000  0.46830000  1
  H  H73  1  0.55410000  0.65900000  0.53170000  1
  H  H74  1  0.59570000  0.36570000  0.60630000  1
  H  H75  1  0.59570000  0.63430000  0.39370000  1
  H  H76  1  0.61400000  0.13690000  0.74550000  1
  H  H77  1  0.61400000  0.86310000  0.25450000  1
  H  H78  1  0.63050000  0.17010000  0.25820000  1
  H  H79  1  0.63050000  0.82990000  0.74180000  1
  H  H80  1  0.65080000  0.42560000  0.80110000  1
  H  H81  1  0.65080000  0.57440000  0.19890000  1
  H  H82  1  0.65310000  0.01600000  0.82530000  1
  H  H83  1  0.65310000  0.98400000  0.17470000  1
  H  H84  1  0.69560000  0.43300000  0.01660000  1
  H  H85  1  0.69560000  0.56700000  0.98340000  1
  H  H86  1  0.78670000  0.00340000  0.32370000  1
  H  H87  1  0.78670000  0.99660000  0.67630000  1
  H  H88  1  0.79900000  0.17110000  0.77360000  1
  H  H89  1  0.79900000  0.82890000  0.22640000  1
  H  H90  1  0.81720000  0.13460000  0.23280000  1
  H  H91  1  0.81720000  0.86540000  0.76720000  1
  H  H92  1  0.82210000  0.31280000  0.17150000  1
  H  H93  1  0.82210000  0.68720000  0.82850000  1
  H  H94  1  0.84520000  0.43320000  0.51700000  1
  H  H95  1  0.84520000  0.56680000  0.48300000  1
  H  H96  1  0.90910000  0.42340000  0.30780000  1
  H  H97  1  0.90910000  0.57660000  0.69220000  1
  H  H98  1  0.91630000  0.32270000  0.67220000  1
  H  H99  1  0.91630000  0.67730000  0.32780000  1
  H  H100  1  0.92570000  0.15470000  0.54350000  1
  H  H101  1  0.92570000  0.84530000  0.45650000  1
  H  H102  1  0.94690000  0.24250000  0.29330000  1
  H  H103  1  0.94690000  0.75750000  0.70670000  1
  H  H104  1  0.95140000  0.37040000  0.10390000  1
  H  H105  1  0.95140000  0.62960000  0.89610000  1
  H  H106  1  0.96180000  0.24700000  0.13300000  1
  H  H107  1  0.96180000  0.75300000  0.86700000  1
  H  H108  1  0.97490000  0.11450000  0.75970000  1
  H  H109  1  0.97490000  0.88550000  0.24030000  1
  H  H110  1  0.99970000  0.15100000  0.46740000  1
  H  H111  1  0.99970000  0.84900000  0.53260000  1
  C  C112  1  0.00420000  0.13920000  0.53780000  1
  C  C113  1  0.00420000  0.86080000  0.46220000  1
  C  C114  1  0.01210000  0.01300000  0.70680000  1
  C  C115  1  0.01210000  0.98700000  0.29320000  1
  C  C116  1  0.02690000  0.20340000  0.23740000  1
  C  C117  1  0.02690000  0.79660000  0.76260000  1
  C  C118  1  0.03120000  0.20430000  0.18830000  1
  C  C119  1  0.03120000  0.79570000  0.81170000  1
  C  C120  1  0.04290000  0.25470000  0.66530000  1
  C  C121  1  0.04290000  0.74530000  0.33470000  1
  C  C122  1  0.04580000  0.13480000  0.49190000  1
  C  C123  1  0.04580000  0.86520000  0.50810000  1
  C  C124  1  0.05210000  0.25720000  0.76090000  1
  C  C125  1  0.05210000  0.74280000  0.23910000  1
  C  C126  1  0.07480000  0.12160000  0.57360000  1
  C  C127  1  0.07480000  0.87840000  0.42640000  1
  C  C128  1  0.09840000  0.39810000  0.24590000  1
  C  C129  1  0.09840000  0.60190000  0.75410000  1
  C  C130  1  0.10020000  0.44970000  0.21640000  1
  C  C131  1  0.10020000  0.55030000  0.78360000  1
  C  C132  1  0.10650000  0.15630000  0.26400000  1
  C  C133  1  0.10650000  0.84370000  0.73600000  1
  C  C134  1  0.12440000  0.46680000  0.68280000  1
  C  C135  1  0.12440000  0.53320000  0.31720000  1
  C  C136  1  0.12700000  0.21430000  0.68820000  1
  C  C137  1  0.12700000  0.78570000  0.31180000  1
  C  C138  1  0.13140000  0.21640000  0.73660000  1
  C  C139  1  0.13140000  0.78360000  0.26340000  1
  C  C140  1  0.15860000  0.10550000  0.48410000  1
  C  C141  1  0.15860000  0.89450000  0.51590000  1
  C  C142  1  0.18400000  0.09230000  0.56640000  1
  C  C143  1  0.18400000  0.90770000  0.43360000  1
  C  C144  1  0.19110000  0.07160000  0.10650000  1
  C  C145  1  0.19110000  0.92840000  0.89350000  1
  C  C146  1  0.20430000  0.36510000  0.25500000  1
  C  C147  1  0.20430000  0.63490000  0.74500000  1
  C  C148  1  0.20500000  0.09510000  0.43470000  1
  C  C149  1  0.20500000  0.90490000  0.56530000  1
  C  C150  1  0.21120000  0.46880000  0.19650000  1
  C  C151  1  0.21120000  0.53120000  0.80350000  1
  C  C152  1  0.21200000  0.17250000  0.76350000  1
  C  C153  1  0.21200000  0.82750000  0.23650000  1
  C  C154  1  0.22690000  0.08920000  0.02270000  1
  C  C155  1  0.22690000  0.91080000  0.97730000  1
  C  C156  1  0.22780000  0.08540000  0.52160000  1
  C  C157  1  0.22780000  0.91460000  0.47840000  1
  C  C158  1  0.24570000  0.44440000  0.70000000  1
  C  C159  1  0.24570000  0.55560000  0.30000000  1
  C  C160  1  0.24700000  0.10210000  0.93710000  1
  C  C161  1  0.24700000  0.89790000  0.06290000  1
  C  C162  1  0.25340000  0.38850000  0.72610000  1
  C  C163  1  0.25340000  0.61150000  0.27390000  1
  C  C164  1  0.26150000  0.06850000  0.60620000  1
  C  C165  1  0.26150000  0.93150000  0.39380000  1
  C  C166  1  0.26350000  0.09830000  0.06780000  1
  C  C167  1  0.26350000  0.90170000  0.93220000  1
  C  C168  1  0.29380000  0.11220000  0.98520000  1
  C  C169  1  0.29380000  0.88780000  0.01480000  1
  C  C170  1  0.31410000  0.38430000  0.23740000  1
  C  C171  1  0.31410000  0.61570000  0.76260000  1
  C  C172  1  0.31790000  0.43630000  0.20690000  1
  C  C173  1  0.31790000  0.56370000  0.79310000  1
  C  C174  1  0.35080000  0.47870000  0.69199000  1
  C  C175  1  0.35080000  0.52130000  0.30801000  1
  C  C176  1  0.36450000  0.36800000  0.74190000  1
  C  C177  1  0.36450000  0.63200000  0.25810000  1
  C  C178  1  0.37600000  0.12880000  0.07610000  1
  C  C179  1  0.37600000  0.87120000  0.92390000  1
  C  C180  1  0.40120000  0.14290000  0.99330000  1
  C  C181  1  0.40120000  0.85710000  0.00670000  1
  C  C182  1  0.42480000  0.00120000  0.20350000  1
  C  C183  1  0.42480000  0.99880000  0.79650000  1
  C  C184  1  0.43800000  0.45820000  0.18730000  1
  C  C185  1  0.43800000  0.54180000  0.81270000  1
  C  C186  1  0.44520000  0.15080000  0.03840000  1
  C  C187  1  0.44520000  0.84920000  0.96160000  1
  C  C188  1  0.46420000  0.45810000  0.70970000  1
  C  C189  1  0.46420000  0.54190000  0.29030000  1
  C  C190  1  0.47060000  0.40330000  0.73400000  1
  C  C191  1  0.47060000  0.59670000  0.26600000  1
  C  C192  1  0.52940000  0.09670000  0.23400000  1
  C  C193  1  0.52940000  0.90330000  0.76600000  1
  C  C194  1  0.53580000  0.04190000  0.20970000  1
  C  C195  1  0.53580000  0.95810000  0.79030000  1
  C  C196  1  0.55480000  0.34920000  0.53840000  1
  C  C197  1  0.55480000  0.65080000  0.46160000  1
  C  C198  1  0.56200000  0.04180000  0.68730000  1
  C  C199  1  0.56200000  0.95820000  0.31270000  1
  C  C200  1  0.57520000  0.49880000  0.70350000  1
  C  C201  1  0.57520000  0.50120000  0.29650000  1
  C  C202  1  0.59880000  0.35710000  0.49330000  1
  C  C203  1  0.59880000  0.64290000  0.50670000  1
  C  C204  1  0.62400000  0.37120000  0.57610000  1
  C  C205  1  0.62400000  0.62880000  0.42390000  1
  C  C206  1  0.63550000  0.13200000  0.24190000  1
  C  C207  1  0.63550000  0.86800000  0.75810000  1
  C  C208  1  0.64920000  0.02130000  0.19199000  1
  C  C209  1  0.64920000  0.97870000  0.80801000  1
  C  C210  1  0.68210000  0.06370000  0.70690000  1
  C  C211  1  0.68210000  0.93630000  0.29310000  1
  C  C212  1  0.68590000  0.11570000  0.73740000  1
  C  C213  1  0.68590000  0.88430000  0.26260000  1
  C  C214  1  0.70620000  0.38780000  0.48520000  1
  C  C215  1  0.70620000  0.61220000  0.51480000  1
  C  C216  1  0.73650000  0.40170000  0.56780000  1
  C  C217  1  0.73650000  0.59830000  0.43220000  1
  C  C218  1  0.73850000  0.43150000  0.10620000  1
  C  C219  1  0.73850000  0.56850000  0.89380000  1
  C  C220  1  0.74660000  0.11150000  0.22610000  1
  C  C221  1  0.74660000  0.88850000  0.77390000  1
  C  C222  1  0.75300000  0.39790000  0.43710000  1
  C  C223  1  0.75300000  0.60210000  0.56290000  1
  C  C224  1  0.75430000  0.05560000  0.20000000  1
  C  C225  1  0.75430000  0.94440000  0.80000000  1
  C  C226  1  0.77220000  0.41460000  0.02160000  1
  C  C227  1  0.77220000  0.58540000  0.97840000  1
  C  C228  1  0.77310000  0.41080000  0.52270000  1
  C  C229  1  0.77310000  0.58920000  0.47730000  1
  C  C230  1  0.78800000  0.32750000  0.26350000  1
  C  C231  1  0.78800000  0.67250000  0.73650000  1
  C  C232  1  0.78880000  0.03120000  0.69650000  1
  C  C233  1  0.78880000  0.96880000  0.30350000  1
  C  C234  1  0.79500000  0.40490000  0.93470000  1
  C  C235  1  0.79500000  0.59510000  0.06530000  1
  C  C236  1  0.79570000  0.13490000  0.75500000  1
  C  C237  1  0.79570000  0.86510000  0.24500000  1
  C  C238  1  0.80890000  0.42840000  0.60650000  1
  C  C239  1  0.80890000  0.57160000  0.39350000  1
  C  C240  1  0.81600000  0.40770000  0.06640000  1
  C  C241  1  0.81600000  0.59230000  0.93360000  1
  C  C242  1  0.84140000  0.39450000  0.98410000  1
  C  C243  1  0.84140000  0.60550000  0.01590000  1
  C  C244  1  0.86860000  0.28360000  0.23660000  1
  C  C245  1  0.86860000  0.71640000  0.76340000  1
  C  C246  1  0.87300000  0.28570000  0.18820000  1
  C  C247  1  0.87300000  0.71430000  0.81180000  1
  C  C248  1  0.87560000  0.03320000  0.18280000  1
  C  C249  1  0.87560000  0.96680000  0.81720000  1
  C  C250  1  0.89350000  0.34370000  0.76400000  1
  C  C251  1  0.89350000  0.65630000  0.23600000  1
  C  C252  1  0.89980000  0.05030000  0.71640000  1
  C  C253  1  0.89980000  0.94970000  0.28360000  1
  C  C254  1  0.90160000  0.10190000  0.74590000  1
  C  C255  1  0.90160000  0.89810000  0.25410000  1
  C  C256  1  0.92520000  0.37840000  0.07360000  1
  C  C257  1  0.92520000  0.62160000  0.92640000  1
  C  C258  1  0.94790000  0.24280000  0.26090000  1
  C  C259  1  0.94790000  0.75720000  0.73910000  1
  C  C260  1  0.95420000  0.36520000  0.99190000  1
  C  C261  1  0.95420000  0.63480000  0.00810000  1
  C  C262  1  0.95710000  0.24530000  0.16530000  1
  C  C263  1  0.95710000  0.75470000  0.83470000  1
  C  C264  1  0.96880000  0.29570000  0.68830000  1
  C  C265  1  0.96880000  0.70430000  0.31170000  1
  C  C266  1  0.97310000  0.29660000  0.73740000  1
  C  C267  1  0.97310000  0.70340000  0.26260000  1
  C  C268  1  0.98790000  0.48700000  0.20680000  1
  C  C269  1  0.98790000  0.51300000  0.79320000  1
  C  C270  1  0.99580000  0.36080000  0.03780000  1
  C  C271  1  0.99580000  0.63920000  0.96220000  1
  O  O272  1  0.01030000  0.02710000  0.32536000  1
  O  O273  1  0.01030000  0.97290000  0.67464000  1
  O  O274  1  0.03070000  0.44380000  0.70178000  1
  O  O275  1  0.03070000  0.55620000  0.29822000  1
  O  O276  1  0.09060000  0.04510000  0.09750000  1
  O  O277  1  0.09060000  0.95490000  0.90250000  1
  O  O278  1  0.10210000  0.16140000  0.30805000  1
  O  O279  1  0.10210000  0.83860000  0.69195000  1
  O  O280  1  0.10830000  0.02320000  0.73132000  1
  O  O281  1  0.10830000  0.97680000  0.26868000  1
  O  O282  1  0.12330000  0.09500000  0.40418000  1
  O  O283  1  0.12330000  0.90500000  0.59582000  1
  O  O284  1  0.12490000  0.49270000  0.35037000  1
  O  O285  1  0.12490000  0.50730000  0.64963000  1
  O  O286  1  0.13960000  0.05140000  0.82974000  1
  O  O287  1  0.13960000  0.94860000  0.17026000  1
  O  O288  1  0.14150000  0.08520000  0.93232000  1
  O  O289  1  0.14150000  0.91480000  0.06768000  1
  O  O290  1  0.16900000  0.11740000  0.24438000  1
  O  O291  1  0.16900000  0.88260000  0.75562000  1
  O  O292  1  0.21710000  0.07480000  0.64636000  1
  O  O293  1  0.21710000  0.92520000  0.35364000  1
  O  O294  1  0.21780000  0.18030000  0.80733000  1
  O  O295  1  0.21780000  0.81970000  0.19267000  1
  O  O296  1  0.23260000  0.07710000  0.14776000  1
  O  O297  1  0.23260000  0.92290000  0.85224000  1
  O  O298  1  0.27010000  0.12970000  0.74450000  1
  O  O299  1  0.27010000  0.87030000  0.25550000  1
  O  O300  1  0.31140000  0.04670000  0.32450000  1
  O  O301  1  0.31140000  0.95330000  0.67550000  1
  O  O302  1  0.31580000  0.08830000  0.42810000  1
  O  O303  1  0.31580000  0.91170000  0.57190000  1
  O  O304  1  0.31810000  0.11340000  0.90488000  1
  O  O305  1  0.31810000  0.88660000  0.09512000  1
  O  O306  1  0.33310000  0.01120000  0.22889000  1
  O  O307  1  0.33310000  0.98880000  0.77111000  1
  O  O308  1  0.36100000  0.04190000  0.59700000  1
  O  O309  1  0.36100000  0.95810000  0.40300000  1
  O  O310  1  0.42850000  0.04090000  0.82724000  1
  O  O311  1  0.42850000  0.95910000  0.17276000  1
  O  O312  1  0.43250000  0.49600000  0.84120000  1
  O  O313  1  0.43250000  0.50400000  0.15880000  1
  O  O314  1  0.46700000  0.06840000  0.70178000  1
  O  O315  1  0.46700000  0.93160000  0.29822000  1
  O  O316  1  0.53300000  0.43160000  0.20178000  1
  O  O317  1  0.53300000  0.56840000  0.79822000  1
  O  O318  1  0.56750000  0.00400000  0.34120000  1
  O  O319  1  0.56750000  0.99600000  0.65880000  1
  O  O320  1  0.57150000  0.45910000  0.32724000  1
  O  O321  1  0.57150000  0.54090000  0.67276000  1
  O  O322  1  0.63900000  0.45810000  0.09700000  1
  O  O323  1  0.63900000  0.54190000  0.90300000  1
  O  O324  1  0.66690000  0.48880000  0.72889000  1
  O  O325  1  0.66690000  0.51120000  0.27111000  1
  O  O326  1  0.68190000  0.38660000  0.40488000  1
  O  O327  1  0.68190000  0.61340000  0.59512000  1
  O  O328  1  0.68420000  0.41170000  0.92810000  1
  O  O329  1  0.68420000  0.58830000  0.07190000  1
  O  O330  1  0.68860000  0.45330000  0.82450000  1
  O  O331  1  0.68860000  0.54670000  0.17550000  1
  O  O332  1  0.72990000  0.37030000  0.24450000  1
  O  O333  1  0.72990000  0.62970000  0.75550000  1
  O  O334  1  0.76740000  0.42290000  0.64776000  1
  O  O335  1  0.76740000  0.57710000  0.35224000  1
  O  O336  1  0.78220000  0.31970000  0.30733000  1
  O  O337  1  0.78220000  0.68030000  0.69267000  1
  O  O338  1  0.78290000  0.42520000  0.14636000  1
  O  O339  1  0.78290000  0.57480000  0.85364000  1
  O  O340  1  0.83100000  0.38260000  0.74438000  1
  O  O341  1  0.83100000  0.61740000  0.25562000  1
  O  O342  1  0.85850000  0.41480000  0.43232000  1
  O  O343  1  0.85850000  0.58520000  0.56768000  1
  O  O344  1  0.86040000  0.44860000  0.32974000  1
  O  O345  1  0.86040000  0.55140000  0.67026000  1
  O  O346  1  0.87510000  0.00730000  0.85037000  1
  O  O347  1  0.87510000  0.99270000  0.14963000  1
  O  O348  1  0.87670000  0.40500000  0.90418000  1
  O  O349  1  0.87670000  0.59500000  0.09582000  1
  O  O350  1  0.89170000  0.47680000  0.23132000  1
  O  O351  1  0.89170000  0.52320000  0.76868000  1
  O  O352  1  0.89790000  0.33860000  0.80805000  1
  O  O353  1  0.89790000  0.66140000  0.19195000  1
  O  O354  1  0.90940000  0.45490000  0.59750000  1
  O  O355  1  0.90940000  0.54510000  0.40250000  1
  O  O356  1  0.96930000  0.05620000  0.20178000  1
  O  O357  1  0.96930000  0.94380000  0.79822000  1
  O  O358  1  0.98970000  0.47290000  0.82536000  1
  O  O359  1  0.98970000  0.52710000  0.17464000  1
