# generated using pymatgen
data_CdNiH12(C2N)6
_symmetry_space_group_name_H-M   'P 1'
_cell_length_a   9.25400000
_cell_length_b   12.04420000
_cell_length_c   13.17000000
_cell_angle_alpha   80.06370000
_cell_angle_beta   69.43140000
_cell_angle_gamma   67.40790000
_symmetry_Int_Tables_number   1
_chemical_formula_structural   CdNiH12(C2N)6
_chemical_formula_sum   'Cd2 Ni2 H24 C24 N12'
_cell_volume   1267.65394720
_cell_formula_units_Z   2
loop_
 _symmetry_equiv_pos_site_id
 _symmetry_equiv_pos_as_xyz
  1  'x, y, z'
loop_
 _atom_site_type_symbol
 _atom_site_label
 _atom_site_symmetry_multiplicity
 _atom_site_fract_x
 _atom_site_fract_y
 _atom_site_fract_z
 _atom_site_occupancy
  Cd  Cd0  1  0.00000000  0.00000000  0.00000000  1
  Cd  Cd1  1  0.00000000  0.50000000  0.50000000  1
  Ni  Ni2  1  0.36207000  0.25000000  0.75000000  1
  Ni  Ni3  1  0.63793000  0.75000000  0.25000000  1
  H  H4  1  0.00130000  0.77198000  0.37724000  1
  H  H5  1  0.00597000  0.30882000  0.39864000  1
  H  H6  1  0.11560000  0.69786000  0.00614000  1
  H  H7  1  0.15052000  0.72802000  0.12276000  1
  H  H8  1  0.15761000  0.66201000  0.49425000  1
  H  H9  1  0.17705000  0.88432000  0.33704000  1
  H  H10  1  0.18040000  0.19786000  0.50614000  1
  H  H11  1  0.21569000  0.06708000  0.36286000  1
  H  H12  1  0.28657000  0.80882000  0.89864000  1
  H  H13  1  0.31387000  0.83799000  0.00575000  1
  H  H14  1  0.35437000  0.56708000  0.86286000  1
  H  H15  1  0.39841000  0.61568000  0.16296000  1
  H  H16  1  0.60159000  0.38432000  0.83704000  1
  H  H17  1  0.64563000  0.43292000  0.13714000  1
  H  H18  1  0.68613000  0.16201000  0.99425000  1
  H  H19  1  0.71343000  0.19118000  0.10136000  1
  H  H20  1  0.78431000  0.93292000  0.63714000  1
  H  H21  1  0.81960000  0.80214000  0.49386000  1
  H  H22  1  0.82295000  0.11568000  0.66296000  1
  H  H23  1  0.84239000  0.33799000  0.50575000  1
  H  H24  1  0.84948000  0.27198000  0.87724000  1
  H  H25  1  0.88440000  0.30214000  0.99386000  1
  H  H26  1  0.99403000  0.69118000  0.60136000  1
  H  H27  1  0.99870000  0.22802000  0.62276000  1
  C  C28  1  0.02260000  0.10330000  0.51590000  1
  C  C29  1  0.04750000  0.21350000  0.53510000  1
  C  C30  1  0.09880000  0.93520000  0.40860000  1
  C  C31  1  0.12160000  0.03780000  0.42320000  1
  C  C32  1  0.20390000  0.71350000  0.03510000  1
  C  C33  1  0.21280000  0.34170000  0.67710000  1
  C  C34  1  0.23160000  0.15830000  0.82290000  1
  C  C35  1  0.35820000  0.60330000  0.01590000  1
  C  C36  1  0.41740000  0.53780000  0.92320000  1
  C  C37  1  0.44260000  0.56480000  0.09140000  1
  C  C38  1  0.48890000  0.83440000  0.17460000  1
  C  C39  1  0.49790000  0.66560000  0.32540000  1
  C  C40  1  0.50210000  0.33440000  0.67460000  1
  C  C41  1  0.51110000  0.16560000  0.82540000  1
  C  C42  1  0.55740000  0.43520000  0.90860000  1
  C  C43  1  0.58260000  0.46220000  0.07680000  1
  C  C44  1  0.64180000  0.39670000  0.98410000  1
  C  C45  1  0.76840000  0.84170000  0.17710000  1
  C  C46  1  0.78720000  0.65830000  0.32290000  1
  C  C47  1  0.79610000  0.28650000  0.96490000  1
  C  C48  1  0.87840000  0.96220000  0.57680000  1
  C  C49  1  0.90120000  0.06480000  0.59140000  1
  C  C50  1  0.95250000  0.78650000  0.46490000  1
  C  C51  1  0.97740000  0.89670000  0.48410000  1
  N  N52  1  0.03680000  0.67620000  0.52200000  1
  N  N53  1  0.12200000  0.40090000  0.63210000  1
  N  N54  1  0.15500000  0.09910000  0.86790000  1
  N  N55  1  0.23500000  0.82380000  0.97800000  1
  N  N56  1  0.39880000  0.88220000  0.12660000  1
  N  N57  1  0.40760000  0.61780000  0.37340000  1
  N  N58  1  0.59240000  0.38220000  0.62660000  1
  N  N59  1  0.60120000  0.11780000  0.87340000  1
  N  N60  1  0.76500000  0.17620000  0.02200000  1
  N  N61  1  0.84500000  0.90090000  0.13210000  1
  N  N62  1  0.87800000  0.59910000  0.36790000  1
  N  N63  1  0.96320000  0.32380000  0.47800000  1
