# generated using pymatgen
data_TbH16C24NO8
_symmetry_space_group_name_H-M   'P 1'
_cell_length_a   10.93200000
_cell_length_b   16.71300000
_cell_length_c   18.89300000
_cell_angle_alpha   90.00000000
_cell_angle_beta   90.00000000
_cell_angle_gamma   90.00000000
_symmetry_Int_Tables_number   1
_chemical_formula_structural   TbH16C24NO8
_chemical_formula_sum   'Tb4 H64 C96 N4 O32'
_cell_volume   3451.87420679
_cell_formula_units_Z   4
loop_
 _symmetry_equiv_pos_site_id
 _symmetry_equiv_pos_as_xyz
  1  'x, y, z'
loop_
 _atom_site_type_symbol
 _atom_site_label
 _atom_site_symmetry_multiplicity
 _atom_site_fract_x
 _atom_site_fract_y
 _atom_site_fract_z
 _atom_site_occupancy
  Tb  Tb0  1  0.20577000  0.75000000  0.20461000  1
  Tb  Tb1  1  0.29423000  0.25000000  0.70461000  1
  Tb  Tb2  1  0.70577000  0.75000000  0.29539000  1
  Tb  Tb3  1  0.79423000  0.25000000  0.79539000  1
  H  H4  1  0.01950000  0.67210000  0.45820000  1
  H  H5  1  0.01950000  0.82790000  0.45820000  1
  H  H6  1  0.02570000  0.25000000  0.08650000  1
  H  H7  1  0.02860000  0.10660000  0.36480000  1
  H  H8  1  0.02860000  0.39340000  0.36480000  1
  H  H9  1  0.03560000  0.75000000  0.03040000  1
  H  H10  1  0.03850000  0.01040000  0.68100000  1
  H  H11  1  0.03850000  0.48960000  0.68100000  1
  H  H12  1  0.07470000  0.17910000  0.47950000  1
  H  H13  1  0.07470000  0.32090000  0.47950000  1
  H  H14  1  0.13600000  0.75000000  0.70690000  1
  H  H15  1  0.17820000  0.57060000  0.46260000  1
  H  H16  1  0.17820000  0.92940000  0.46260000  1
  H  H17  1  0.18350000  0.75000000  0.40920000  1
  H  H18  1  0.24980000  0.04680000  0.51260000  1
  H  H19  1  0.24980000  0.45320000  0.51260000  1
  H  H20  1  0.25020000  0.54680000  0.01260000  1
  H  H21  1  0.25020000  0.95320000  0.01260000  1
  H  H22  1  0.31650000  0.25000000  0.90920000  1
  H  H23  1  0.32180000  0.07060000  0.96260000  1
  H  H24  1  0.32180000  0.42940000  0.96260000  1
  H  H25  1  0.36400000  0.25000000  0.20690000  1
  H  H26  1  0.42530000  0.67910000  0.97950000  1
  H  H27  1  0.42530000  0.82090000  0.97950000  1
  H  H28  1  0.46150000  0.51040000  0.18100000  1
  H  H29  1  0.46150000  0.98960000  0.18100000  1
  H  H30  1  0.46440000  0.25000000  0.53040000  1
  H  H31  1  0.47140000  0.60660000  0.86480000  1
  H  H32  1  0.47140000  0.89340000  0.86480000  1
  H  H33  1  0.47430000  0.75000000  0.58650000  1
  H  H34  1  0.48050000  0.17210000  0.95820000  1
  H  H35  1  0.48050000  0.32790000  0.95820000  1
  H  H36  1  0.51950000  0.67210000  0.04180000  1
  H  H37  1  0.51950000  0.82790000  0.04180000  1
  H  H38  1  0.52570000  0.25000000  0.41350000  1
  H  H39  1  0.52860000  0.10660000  0.13520000  1
  H  H40  1  0.52860000  0.39340000  0.13520000  1
  H  H41  1  0.53560000  0.75000000  0.46960000  1
  H  H42  1  0.53850000  0.01040000  0.81900000  1
  H  H43  1  0.53850000  0.48960000  0.81900000  1
  H  H44  1  0.57470000  0.17910000  0.02050000  1
  H  H45  1  0.57470000  0.32090000  0.02050000  1
  H  H46  1  0.63600000  0.75000000  0.79310000  1
  H  H47  1  0.67820000  0.57060000  0.03740000  1
  H  H48  1  0.67820000  0.92940000  0.03740000  1
  H  H49  1  0.68350000  0.75000000  0.09080000  1
  H  H50  1  0.74980000  0.04680000  0.98740000  1
  H  H51  1  0.74980000  0.45320000  0.98740000  1
  H  H52  1  0.75020000  0.54680000  0.48740000  1
  H  H53  1  0.75020000  0.95320000  0.48740000  1
  H  H54  1  0.81650000  0.25000000  0.59080000  1
  H  H55  1  0.82180000  0.07060000  0.53740000  1
  H  H56  1  0.82180000  0.42940000  0.53740000  1
  H  H57  1  0.86400000  0.25000000  0.29310000  1
  H  H58  1  0.92530000  0.67910000  0.52050000  1
  H  H59  1  0.92530000  0.82090000  0.52050000  1
  H  H60  1  0.96150000  0.51040000  0.31900000  1
  H  H61  1  0.96150000  0.98960000  0.31900000  1
  H  H62  1  0.96440000  0.25000000  0.96960000  1
  H  H63  1  0.97140000  0.60660000  0.63520000  1
  H  H64  1  0.97140000  0.89340000  0.63520000  1
  H  H65  1  0.97430000  0.75000000  0.91350000  1
  H  H66  1  0.98050000  0.17210000  0.54180000  1
  H  H67  1  0.98050000  0.32790000  0.54180000  1
  C  C68  1  0.01170000  0.67540000  0.50920000  1
  C  C69  1  0.01170000  0.82460000  0.50920000  1
  C  C70  1  0.02560000  0.57520000  0.60930000  1
  C  C71  1  0.02560000  0.92480000  0.60930000  1
  C  C72  1  0.04710000  0.25000000  0.98110000  1
  C  C73  1  0.06350000  0.60050000  0.54210000  1
  C  C74  1  0.06350000  0.89950000  0.54210000  1
  C  C75  1  0.06690000  0.50570000  0.63680000  1
  C  C76  1  0.06690000  0.99430000  0.63680000  1
  C  C77  1  0.08480000  0.25000000  0.05110000  1
  C  C78  1  0.10040000  0.25000000  0.85300000  1
  C  C79  1  0.13680000  0.25000000  0.92800000  1
  C  C80  1  0.14920000  0.55430000  0.50660000  1
  C  C81  1  0.14920000  0.94570000  0.50660000  1
  C  C82  1  0.14960000  0.04210000  0.60180000  1
  C  C83  1  0.14960000  0.45790000  0.60180000  1
  C  C84  1  0.19190000  0.01640000  0.53660000  1
  C  C85  1  0.19190000  0.48360000  0.53660000  1
  C  C86  1  0.19220000  0.11850000  0.63170000  1
  C  C87  1  0.19220000  0.38150000  0.63170000  1
  C  C88  1  0.20550000  0.25000000  0.07030000  1
  C  C89  1  0.20670000  0.75000000  0.51840000  1
  C  C90  1  0.24100000  0.25000000  0.14790000  1
  C  C91  1  0.24240000  0.75000000  0.44470000  1
  C  C92  1  0.25760000  0.25000000  0.94470000  1
  C  C93  1  0.25900000  0.75000000  0.64790000  1
  C  C94  1  0.29330000  0.25000000  0.01840000  1
  C  C95  1  0.29450000  0.75000000  0.57030000  1
  C  C96  1  0.30780000  0.61850000  0.13170000  1
  C  C97  1  0.30780000  0.88150000  0.13170000  1
  C  C98  1  0.30810000  0.51640000  0.03660000  1
  C  C99  1  0.30810000  0.98360000  0.03660000  1
  C  C100  1  0.35040000  0.54210000  0.10180000  1
  C  C101  1  0.35040000  0.95790000  0.10180000  1
  C  C102  1  0.35080000  0.05430000  0.00660000  1
  C  C103  1  0.35080000  0.44570000  0.00660000  1
  C  C104  1  0.36320000  0.75000000  0.42800000  1
  C  C105  1  0.39960000  0.75000000  0.35300000  1
  C  C106  1  0.41520000  0.75000000  0.55110000  1
  C  C107  1  0.43310000  0.00570000  0.13680000  1
  C  C108  1  0.43310000  0.49430000  0.13680000  1
  C  C109  1  0.43650000  0.10050000  0.04210000  1
  C  C110  1  0.43650000  0.39950000  0.04210000  1
  C  C111  1  0.45290000  0.75000000  0.48110000  1
  C  C112  1  0.47440000  0.07520000  0.10930000  1
  C  C113  1  0.47440000  0.42480000  0.10930000  1
  C  C114  1  0.48830000  0.17540000  0.00920000  1
  C  C115  1  0.48830000  0.32460000  0.00920000  1
  C  C116  1  0.51170000  0.67540000  0.99080000  1
  C  C117  1  0.51170000  0.82460000  0.99080000  1
  C  C118  1  0.52560000  0.57520000  0.89070000  1
  C  C119  1  0.52560000  0.92480000  0.89070000  1
  C  C120  1  0.54710000  0.25000000  0.51890000  1
  C  C121  1  0.56350000  0.60050000  0.95790000  1
  C  C122  1  0.56350000  0.89950000  0.95790000  1
  C  C123  1  0.56690000  0.50570000  0.86320000  1
  C  C124  1  0.56690000  0.99430000  0.86320000  1
  C  C125  1  0.58480000  0.25000000  0.44890000  1
  C  C126  1  0.60040000  0.25000000  0.64700000  1
  C  C127  1  0.63680000  0.25000000  0.57200000  1
  C  C128  1  0.64920000  0.55430000  0.99340000  1
  C  C129  1  0.64920000  0.94570000  0.99340000  1
  C  C130  1  0.64960000  0.04210000  0.89820000  1
  C  C131  1  0.64960000  0.45790000  0.89820000  1
  C  C132  1  0.69190000  0.01640000  0.96340000  1
  C  C133  1  0.69190000  0.48360000  0.96340000  1
  C  C134  1  0.69220000  0.11850000  0.86830000  1
  C  C135  1  0.69220000  0.38150000  0.86830000  1
  C  C136  1  0.70550000  0.25000000  0.42970000  1
  C  C137  1  0.70670000  0.75000000  0.98160000  1
  C  C138  1  0.74100000  0.25000000  0.35210000  1
  C  C139  1  0.74240000  0.75000000  0.05530000  1
  C  C140  1  0.75760000  0.25000000  0.55530000  1
  C  C141  1  0.75900000  0.75000000  0.85210000  1
  C  C142  1  0.79330000  0.25000000  0.48160000  1
  C  C143  1  0.79450000  0.75000000  0.92970000  1
  C  C144  1  0.80780000  0.61850000  0.36830000  1
  C  C145  1  0.80780000  0.88150000  0.36830000  1
  C  C146  1  0.80810000  0.51640000  0.46340000  1
  C  C147  1  0.80810000  0.98360000  0.46340000  1
  C  C148  1  0.85040000  0.54210000  0.39820000  1
  C  C149  1  0.85040000  0.95790000  0.39820000  1
  C  C150  1  0.85080000  0.05430000  0.49340000  1
  C  C151  1  0.85080000  0.44570000  0.49340000  1
  C  C152  1  0.86320000  0.75000000  0.07200000  1
  C  C153  1  0.89960000  0.75000000  0.14700000  1
  C  C154  1  0.91520000  0.75000000  0.94890000  1
  C  C155  1  0.93310000  0.00570000  0.36320000  1
  C  C156  1  0.93310000  0.49430000  0.36320000  1
  C  C157  1  0.93650000  0.10050000  0.45790000  1
  C  C158  1  0.93650000  0.39950000  0.45790000  1
  C  C159  1  0.95290000  0.75000000  0.01890000  1
  C  C160  1  0.97440000  0.07520000  0.39070000  1
  C  C161  1  0.97440000  0.42480000  0.39070000  1
  C  C162  1  0.98830000  0.17540000  0.49080000  1
  C  C163  1  0.98830000  0.32460000  0.49080000  1
  N  N164  1  0.07560000  0.75000000  0.53500000  1
  N  N165  1  0.42440000  0.25000000  0.03500000  1
  N  N166  1  0.57560000  0.75000000  0.96500000  1
  N  N167  1  0.92440000  0.25000000  0.46500000  1
  O  O168  1  0.01110000  0.75000000  0.16380000  1
  O  O169  1  0.13710000  0.14980000  0.68380000  1
  O  O170  1  0.13710000  0.35020000  0.68380000  1
  O  O171  1  0.14400000  0.75000000  0.66380000  1
  O  O172  1  0.15920000  0.25000000  0.19260000  1
  O  O173  1  0.18530000  0.25000000  0.80700000  1
  O  O174  1  0.21470000  0.65330000  0.10810000  1
  O  O175  1  0.21470000  0.84670000  0.10810000  1
  O  O176  1  0.28530000  0.15330000  0.60810000  1
  O  O177  1  0.28530000  0.34670000  0.60810000  1
  O  O178  1  0.31470000  0.75000000  0.30700000  1
  O  O179  1  0.34080000  0.75000000  0.69260000  1
  O  O180  1  0.35600000  0.25000000  0.16380000  1
  O  O181  1  0.36290000  0.64980000  0.18380000  1
  O  O182  1  0.36290000  0.85020000  0.18380000  1
  O  O183  1  0.48890000  0.25000000  0.66380000  1
  O  O184  1  0.51110000  0.75000000  0.33620000  1
  O  O185  1  0.63710000  0.14980000  0.81620000  1
  O  O186  1  0.63710000  0.35020000  0.81620000  1
  O  O187  1  0.64400000  0.75000000  0.83620000  1
  O  O188  1  0.65920000  0.25000000  0.30740000  1
  O  O189  1  0.68530000  0.25000000  0.69300000  1
  O  O190  1  0.71470000  0.65330000  0.39190000  1
  O  O191  1  0.71470000  0.84670000  0.39190000  1
  O  O192  1  0.78530000  0.15330000  0.89190000  1
  O  O193  1  0.78530000  0.34670000  0.89190000  1
  O  O194  1  0.81470000  0.75000000  0.19300000  1
  O  O195  1  0.84080000  0.75000000  0.80740000  1
  O  O196  1  0.85600000  0.25000000  0.33620000  1
  O  O197  1  0.86290000  0.64980000  0.31620000  1
  O  O198  1  0.86290000  0.85020000  0.31620000  1
  O  O199  1  0.98890000  0.25000000  0.83620000  1
