# generated using pymatgen
data_EuH2(CO)7
_symmetry_space_group_name_H-M   'P 1'
_cell_length_a   7.35190000
_cell_length_b   9.72950000
_cell_length_c   14.76610000
_cell_angle_alpha   90.00000000
_cell_angle_beta   99.62760000
_cell_angle_gamma   90.00000000
_symmetry_Int_Tables_number   1
_chemical_formula_structural   EuH2(CO)7
_chemical_formula_sum   'Eu4 H8 C28 O28'
_cell_volume   1041.34743625
_cell_formula_units_Z   4
loop_
 _symmetry_equiv_pos_site_id
 _symmetry_equiv_pos_as_xyz
  1  'x, y, z'
loop_
 _atom_site_type_symbol
 _atom_site_label
 _atom_site_symmetry_multiplicity
 _atom_site_fract_x
 _atom_site_fract_y
 _atom_site_fract_z
 _atom_site_occupancy
  Eu  Eu0  1  0.13539000  0.05509000  0.85726000  1
  Eu  Eu1  1  0.36461000  0.55509000  0.64274000  1
  Eu  Eu2  1  0.63539000  0.44491000  0.35726000  1
  Eu  Eu3  1  0.86461000  0.94491000  0.14274000  1
  H  H4  1  0.17800000  0.83540000  0.45480000  1
  H  H5  1  0.22440000  0.54690000  0.12430000  1
  H  H6  1  0.27560000  0.04690000  0.37570000  1
  H  H7  1  0.32200000  0.33540000  0.04520000  1
  H  H8  1  0.67800000  0.66460000  0.95480000  1
  H  H9  1  0.72440000  0.95310000  0.62430000  1
  H  H10  1  0.77560000  0.45310000  0.87570000  1
  H  H11  1  0.82200000  0.16460000  0.54520000  1
  C  C12  1  0.04260000  0.53490000  0.46190000  1
  C  C13  1  0.10710000  0.77300000  0.99640000  1
  C  C14  1  0.18640000  0.87570000  0.65230000  1
  C  C15  1  0.18700000  0.63510000  0.99600000  1
  C  C16  1  0.21460000  0.91930000  0.48210000  1
  C  C17  1  0.22560000  0.95210000  0.57200000  1
  C  C18  1  0.23000000  0.53760000  0.06210000  1
  C  C19  1  0.27000000  0.03760000  0.43790000  1
  C  C20  1  0.27440000  0.45210000  0.92800000  1
  C  C21  1  0.28540000  0.41930000  0.01790000  1
  C  C22  1  0.31300000  0.13510000  0.50400000  1
  C  C23  1  0.31360000  0.37570000  0.84770000  1
  C  C24  1  0.39290000  0.27300000  0.50360000  1
  C  C25  1  0.45740000  0.03490000  0.03810000  1
  C  C26  1  0.54260000  0.96510000  0.96190000  1
  C  C27  1  0.60710000  0.72700000  0.49640000  1
  C  C28  1  0.68640000  0.62430000  0.15230000  1
  C  C29  1  0.68700000  0.86490000  0.49600000  1
  C  C30  1  0.71460000  0.58070000  0.98210000  1
  C  C31  1  0.72560000  0.54790000  0.07200000  1
  C  C32  1  0.73000000  0.96240000  0.56210000  1
  C  C33  1  0.77000000  0.46240000  0.93790000  1
  C  C34  1  0.77440000  0.04790000  0.42800000  1
  C  C35  1  0.78540000  0.08070000  0.51790000  1
  C  C36  1  0.81300000  0.36490000  0.00400000  1
  C  C37  1  0.81360000  0.12430000  0.34770000  1
  C  C38  1  0.89290000  0.22700000  0.00360000  1
  C  C39  1  0.95740000  0.46510000  0.53810000  1
  O  O40  1  0.05820000  0.45310000  0.61520000  1
  O  O41  1  0.06240000  0.81180000  0.07080000  1
  O  O42  1  0.08660000  0.84020000  0.92290000  1
  O  O43  1  0.16450000  0.74730000  0.64280000  1
  O  O44  1  0.17730000  0.93950000  0.72440000  1
  O  O45  1  0.20710000  0.57500000  0.48180000  1
  O  O46  1  0.21680000  0.58580000  0.91320000  1
  O  O47  1  0.28320000  0.08580000  0.58680000  1
  O  O48  1  0.29290000  0.07500000  0.01820000  1
  O  O49  1  0.32270000  0.43950000  0.77560000  1
  O  O50  1  0.33550000  0.24730000  0.85720000  1
  O  O51  1  0.41340000  0.34020000  0.57710000  1
  O  O52  1  0.43760000  0.31180000  0.42920000  1
  O  O53  1  0.44180000  0.95310000  0.88480000  1
  O  O54  1  0.55820000  0.04690000  0.11520000  1
  O  O55  1  0.56240000  0.68820000  0.57080000  1
  O  O56  1  0.58660000  0.65980000  0.42290000  1
  O  O57  1  0.66450000  0.75270000  0.14280000  1
  O  O58  1  0.67730000  0.56050000  0.22440000  1
  O  O59  1  0.70710000  0.92500000  0.98180000  1
  O  O60  1  0.71680000  0.91420000  0.41320000  1
  O  O61  1  0.78320000  0.41420000  0.08680000  1
  O  O62  1  0.79290000  0.42500000  0.51820000  1
  O  O63  1  0.82270000  0.06050000  0.27560000  1
  O  O64  1  0.83550000  0.25270000  0.35720000  1
  O  O65  1  0.91340000  0.15980000  0.07710000  1
  O  O66  1  0.93760000  0.18820000  0.92920000  1
  O  O67  1  0.94180000  0.54690000  0.38480000  1
