# generated using pymatgen
data_PrPH3C3O8
_symmetry_space_group_name_H-M   'P 1'
_cell_length_a   7.23000000
_cell_length_b   10.25350000
_cell_length_c   13.22390000
_cell_angle_alpha   90.00000000
_cell_angle_beta   90.00000000
_cell_angle_gamma   99.86900000
_symmetry_Int_Tables_number   1
_chemical_formula_structural   PrPH3C3O8
_chemical_formula_sum   'Pr4 P4 H12 C12 O32'
_cell_volume   965.81815418
_cell_formula_units_Z   4
loop_
 _symmetry_equiv_pos_site_id
 _symmetry_equiv_pos_as_xyz
  1  'x, y, z'
loop_
 _atom_site_type_symbol
 _atom_site_label
 _atom_site_symmetry_multiplicity
 _atom_site_fract_x
 _atom_site_fract_y
 _atom_site_fract_z
 _atom_site_occupancy
  Pr  Pr0  1  0.16239000  0.28166000  0.90546000  1
  Pr  Pr1  1  0.16239000  0.78166000  0.59454000  1
  Pr  Pr2  1  0.83761000  0.21834000  0.40546000  1
  Pr  Pr3  1  0.83761000  0.71834000  0.09454000  1
  P  P4  1  0.21308000  0.42834000  0.54994000  1
  P  P5  1  0.21308000  0.92834000  0.95006000  1
  P  P6  1  0.78692000  0.07166000  0.04994000  1
  P  P7  1  0.78692000  0.57166000  0.45006000  1
  H  H8  1  0.05780000  0.08600000  0.14880000  1
  H  H9  1  0.05780000  0.58600000  0.35120000  1
  H  H10  1  0.13150000  0.49880000  0.75840000  1
  H  H11  1  0.13150000  0.99880000  0.74160000  1
  H  H12  1  0.40830000  0.31110000  0.54540000  1
  H  H13  1  0.40830000  0.81110000  0.95460000  1
  H  H14  1  0.59170000  0.18890000  0.04540000  1
  H  H15  1  0.59170000  0.68890000  0.45460000  1
  H  H16  1  0.86850000  0.00120000  0.25840000  1
  H  H17  1  0.86850000  0.50120000  0.24160000  1
  H  H18  1  0.94220000  0.41400000  0.64880000  1
  H  H19  1  0.94220000  0.91400000  0.85120000  1
  C  C20  1  0.00180000  0.22570000  0.66330000  1
  C  C21  1  0.00180000  0.72570000  0.83670000  1
  C  C22  1  0.05610000  0.37490000  0.65570000  1
  C  C23  1  0.05610000  0.87490000  0.84430000  1
  C  C24  1  0.45220000  0.05420000  0.52430000  1
  C  C25  1  0.45220000  0.55420000  0.97570000  1
  C  C26  1  0.54780000  0.44580000  0.02430000  1
  C  C27  1  0.54780000  0.94580000  0.47570000  1
  C  C28  1  0.94390000  0.12510000  0.15570000  1
  C  C29  1  0.94390000  0.62510000  0.34430000  1
  C  C30  1  0.99820000  0.27430000  0.16330000  1
  C  C31  1  0.99820000  0.77430000  0.33670000  1
  O  O32  1  0.03960000  0.16900000  0.74350000  1
  O  O33  1  0.03960000  0.66900000  0.75650000  1
  O  O34  1  0.08060000  0.33370000  0.08760000  1
  O  O35  1  0.08060000  0.83370000  0.41240000  1
  O  O36  1  0.13130000  0.36850000  0.45310000  1
  O  O37  1  0.13130000  0.86850000  0.04690000  1
  O  O38  1  0.15320000  0.42450000  0.74620000  1
  O  O39  1  0.15320000  0.92450000  0.75380000  1
  O  O40  1  0.25520000  0.07650000  0.94460000  1
  O  O41  1  0.25520000  0.57650000  0.55540000  1
  O  O42  1  0.30670000  0.01900000  0.57360000  1
  O  O43  1  0.30670000  0.51900000  0.92640000  1
  O  O44  1  0.39710000  0.37500000  0.58080000  1
  O  O45  1  0.39710000  0.87500000  0.91920000  1
  O  O46  1  0.46800000  0.32830000  0.00870000  1
  O  O47  1  0.46800000  0.82830000  0.49130000  1
  O  O48  1  0.53200000  0.17170000  0.50870000  1
  O  O49  1  0.53200000  0.67170000  0.99130000  1
  O  O50  1  0.60290000  0.12500000  0.08080000  1
  O  O51  1  0.60290000  0.62500000  0.41920000  1
  O  O52  1  0.69330000  0.48100000  0.07360000  1
  O  O53  1  0.69330000  0.98100000  0.42640000  1
  O  O54  1  0.74480000  0.42350000  0.44460000  1
  O  O55  1  0.74480000  0.92350000  0.05540000  1
  O  O56  1  0.84680000  0.07550000  0.24620000  1
  O  O57  1  0.84680000  0.57550000  0.25380000  1
  O  O58  1  0.86870000  0.13150000  0.95310000  1
  O  O59  1  0.86870000  0.63150000  0.54690000  1
  O  O60  1  0.91940000  0.16630000  0.58760000  1
  O  O61  1  0.91940000  0.66630000  0.91240000  1
  O  O62  1  0.96040000  0.33100000  0.24350000  1
  O  O63  1  0.96040000  0.83100000  0.25650000  1
