# generated using pymatgen
data_Mg3H9C24N3O13
_symmetry_space_group_name_H-M   'P 1'
_cell_length_a   22.30510000
_cell_length_b   22.30510000
_cell_length_c   22.30510000
_cell_angle_alpha   90.00000000
_cell_angle_beta   90.00000000
_cell_angle_gamma   90.00000000
_symmetry_Int_Tables_number   1
_chemical_formula_structural   Mg3H9C24N3O13
_chemical_formula_sum   'Mg24 H72 C192 N24 O104'
_cell_volume   11097.17727720
_cell_formula_units_Z   8
loop_
 _symmetry_equiv_pos_site_id
 _symmetry_equiv_pos_as_xyz
  1  'x, y, z'
loop_
 _atom_site_type_symbol
 _atom_site_label
 _atom_site_symmetry_multiplicity
 _atom_site_fract_x
 _atom_site_fract_y
 _atom_site_fract_z
 _atom_site_occupancy
  Mg  Mg0  1  0.17677000  0.24063000  0.69084000  1
  Mg  Mg1  1  0.17677000  0.75937000  0.30916000  1
  Mg  Mg2  1  0.19084000  0.25937000  0.32323000  1
  Mg  Mg3  1  0.19084000  0.74063000  0.67677000  1
  Mg  Mg4  1  0.24063000  0.30916000  0.82323000  1
  Mg  Mg5  1  0.24063000  0.69084000  0.17677000  1
  Mg  Mg6  1  0.25937000  0.32323000  0.19084000  1
  Mg  Mg7  1  0.25937000  0.67677000  0.80916000  1
  Mg  Mg8  1  0.30916000  0.17677000  0.75937000  1
  Mg  Mg9  1  0.30916000  0.82323000  0.24063000  1
  Mg  Mg10  1  0.32323000  0.19084000  0.25937000  1
  Mg  Mg11  1  0.32323000  0.80916000  0.74063000  1
  Mg  Mg12  1  0.67677000  0.19084000  0.74063000  1
  Mg  Mg13  1  0.67677000  0.80916000  0.25937000  1
  Mg  Mg14  1  0.69084000  0.17677000  0.24063000  1
  Mg  Mg15  1  0.69084000  0.82323000  0.75937000  1
  Mg  Mg16  1  0.74063000  0.32323000  0.80916000  1
  Mg  Mg17  1  0.74063000  0.67677000  0.19084000  1
  Mg  Mg18  1  0.75937000  0.30916000  0.17677000  1
  Mg  Mg19  1  0.75937000  0.69084000  0.82323000  1
  Mg  Mg20  1  0.80916000  0.25937000  0.67677000  1
  Mg  Mg21  1  0.80916000  0.74063000  0.32323000  1
  Mg  Mg22  1  0.82323000  0.24063000  0.30916000  1
  Mg  Mg23  1  0.82323000  0.75937000  0.69084000  1
  H  H24  1  0.00840000  0.28020000  0.24230000  1
  H  H25  1  0.00840000  0.71980000  0.75770000  1
  H  H26  1  0.07430000  0.28910000  0.91660000  1
  H  H27  1  0.07430000  0.71090000  0.08340000  1
  H  H28  1  0.08340000  0.07430000  0.71090000  1
  H  H29  1  0.08340000  0.92570000  0.28910000  1
  H  H30  1  0.09150000  0.10320000  0.29720000  1
  H  H31  1  0.09150000  0.89680000  0.70280000  1
  H  H32  1  0.10320000  0.29720000  0.09150000  1
  H  H33  1  0.10320000  0.70280000  0.90850000  1
  H  H34  1  0.20280000  0.39680000  0.59150000  1
  H  H35  1  0.20280000  0.60320000  0.40850000  1
  H  H36  1  0.21090000  0.42570000  0.41660000  1
  H  H37  1  0.21090000  0.57430000  0.58340000  1
  H  H38  1  0.21980000  0.49160000  0.74230000  1
  H  H39  1  0.21980000  0.50840000  0.25770000  1
  H  H40  1  0.24230000  0.00840000  0.28020000  1
  H  H41  1  0.24230000  0.99160000  0.71980000  1
  H  H42  1  0.25770000  0.21980000  0.50840000  1
  H  H43  1  0.25770000  0.78020000  0.49160000  1
  H  H44  1  0.28020000  0.24230000  0.00840000  1
  H  H45  1  0.28020000  0.75770000  0.99160000  1
  H  H46  1  0.28910000  0.08340000  0.92570000  1
  H  H47  1  0.28910000  0.91660000  0.07430000  1
  H  H48  1  0.29720000  0.09150000  0.10320000  1
  H  H49  1  0.29720000  0.90850000  0.89680000  1
  H  H50  1  0.39680000  0.40850000  0.79720000  1
  H  H51  1  0.39680000  0.59150000  0.20280000  1
  H  H52  1  0.40850000  0.20280000  0.60320000  1
  H  H53  1  0.40850000  0.79720000  0.39680000  1
  H  H54  1  0.41660000  0.21090000  0.42570000  1
  H  H55  1  0.41660000  0.78910000  0.57430000  1
  H  H56  1  0.42570000  0.41660000  0.21090000  1
  H  H57  1  0.42570000  0.58340000  0.78910000  1
  H  H58  1  0.49160000  0.25770000  0.78020000  1
  H  H59  1  0.49160000  0.74230000  0.21980000  1
  H  H60  1  0.50840000  0.25770000  0.21980000  1
  H  H61  1  0.50840000  0.74230000  0.78020000  1
  H  H62  1  0.57430000  0.41660000  0.78910000  1
  H  H63  1  0.57430000  0.58340000  0.21090000  1
  H  H64  1  0.58340000  0.21090000  0.57430000  1
  H  H65  1  0.58340000  0.78910000  0.42570000  1
  H  H66  1  0.59150000  0.20280000  0.39680000  1
  H  H67  1  0.59150000  0.79720000  0.60320000  1
  H  H68  1  0.60320000  0.40850000  0.20280000  1
  H  H69  1  0.60320000  0.59150000  0.79720000  1
  H  H70  1  0.70280000  0.09150000  0.89680000  1
  H  H71  1  0.70280000  0.90850000  0.10320000  1
  H  H72  1  0.71090000  0.08340000  0.07430000  1
  H  H73  1  0.71090000  0.91660000  0.92570000  1
  H  H74  1  0.71980000  0.24230000  0.99160000  1
  H  H75  1  0.71980000  0.75770000  0.00840000  1
  H  H76  1  0.74230000  0.21980000  0.49160000  1
  H  H77  1  0.74230000  0.78020000  0.50840000  1
  H  H78  1  0.75770000  0.00840000  0.71980000  1
  H  H79  1  0.75770000  0.99160000  0.28020000  1
  H  H80  1  0.78020000  0.49160000  0.25770000  1
  H  H81  1  0.78020000  0.50840000  0.74230000  1
  H  H82  1  0.78910000  0.42570000  0.58340000  1
  H  H83  1  0.78910000  0.57430000  0.41660000  1
  H  H84  1  0.79720000  0.39680000  0.40850000  1
  H  H85  1  0.79720000  0.60320000  0.59150000  1
  H  H86  1  0.89680000  0.29720000  0.90850000  1
  H  H87  1  0.89680000  0.70280000  0.09150000  1
  H  H88  1  0.90850000  0.10320000  0.70280000  1
  H  H89  1  0.90850000  0.89680000  0.29720000  1
  H  H90  1  0.91660000  0.07430000  0.28910000  1
  H  H91  1  0.91660000  0.92570000  0.71090000  1
  H  H92  1  0.92570000  0.28910000  0.08340000  1
  H  H93  1  0.92570000  0.71090000  0.91660000  1
  H  H94  1  0.99160000  0.28020000  0.75770000  1
  H  H95  1  0.99160000  0.71980000  0.24230000  1
  C  C96  1  0.01022000  0.28411000  0.20084000  1
  C  C97  1  0.01022000  0.71589000  0.79916000  1
  C  C98  1  0.01519000  0.28930000  0.07834000  1
  C  C99  1  0.01519000  0.71070000  0.92166000  1
  C  C100  1  0.03943000  0.28770000  0.89375000  1
  C  C101  1  0.03943000  0.71230000  0.10625000  1
  C  C102  1  0.04330000  0.28400000  0.83257000  1
  C  C103  1  0.04330000  0.71600000  0.16743000  1
  C  C104  1  0.06518000  0.28984000  0.17350000  1
  C  C105  1  0.06518000  0.71016000  0.82650000  1
  C  C106  1  0.06662000  0.29280000  0.11109000  1
  C  C107  1  0.06662000  0.70720000  0.88891000  1
  C  C108  1  0.07834000  0.01519000  0.28930000  1
  C  C109  1  0.07834000  0.98481000  0.71070000  1
  C  C110  1  0.10485000  0.27845000  0.80308000  1
  C  C111  1  0.10485000  0.72155000  0.19692000  1
  C  C112  1  0.10625000  0.03943000  0.71230000  1
  C  C113  1  0.10625000  0.96057000  0.28770000  1
  C  C114  1  0.11109000  0.06662000  0.29280000  1
  C  C115  1  0.11109000  0.93338000  0.70720000  1
  C  C116  1  0.12296000  0.29119000  0.20750000  1
  C  C117  1  0.12296000  0.70881000  0.79250000  1
  C  C118  1  0.16743000  0.04330000  0.71600000  1
  C  C119  1  0.16743000  0.95670000  0.28400000  1
  C  C120  1  0.17350000  0.06518000  0.28984000  1
  C  C121  1  0.17350000  0.93482000  0.71016000  1
  C  C122  1  0.19692000  0.10485000  0.72155000  1
  C  C123  1  0.19692000  0.89515000  0.27845000  1
  C  C124  1  0.20084000  0.01022000  0.28411000  1
  C  C125  1  0.20084000  0.98978000  0.71589000  1
  C  C126  1  0.20720000  0.43338000  0.61109000  1
  C  C127  1  0.20720000  0.56662000  0.38891000  1
  C  C128  1  0.20750000  0.12296000  0.29119000  1
  C  C129  1  0.20750000  0.87704000  0.70881000  1
  C  C130  1  0.20881000  0.37704000  0.70750000  1
  C  C131  1  0.20881000  0.62296000  0.29250000  1
  C  C132  1  0.21016000  0.43482000  0.67350000  1
  C  C133  1  0.21016000  0.56518000  0.32650000  1
  C  C134  1  0.21070000  0.48481000  0.57834000  1
  C  C135  1  0.21070000  0.51519000  0.42166000  1
  C  C136  1  0.21230000  0.46057000  0.39375000  1
  C  C137  1  0.21230000  0.53943000  0.60625000  1
  C  C138  1  0.21589000  0.48978000  0.70084000  1
  C  C139  1  0.21589000  0.51022000  0.29916000  1
  C  C140  1  0.21600000  0.45670000  0.33257000  1
  C  C141  1  0.21600000  0.54330000  0.66743000  1
  C  C142  1  0.22155000  0.39515000  0.30308000  1
  C  C143  1  0.22155000  0.60485000  0.69692000  1
  C  C144  1  0.27845000  0.19692000  0.89515000  1
  C  C145  1  0.27845000  0.80308000  0.10485000  1
  C  C146  1  0.28400000  0.16743000  0.95670000  1
  C  C147  1  0.28400000  0.83257000  0.04330000  1
  C  C148  1  0.28411000  0.20084000  0.01022000  1
  C  C149  1  0.28411000  0.79916000  0.98978000  1
  C  C150  1  0.28770000  0.10625000  0.96057000  1
  C  C151  1  0.28770000  0.89375000  0.03943000  1
  C  C152  1  0.28930000  0.07834000  0.01519000  1
  C  C153  1  0.28930000  0.92166000  0.98481000  1
  C  C154  1  0.28984000  0.17350000  0.06518000  1
  C  C155  1  0.28984000  0.82650000  0.93482000  1
  C  C156  1  0.29119000  0.20750000  0.12296000  1
  C  C157  1  0.29119000  0.79250000  0.87704000  1
  C  C158  1  0.29250000  0.20881000  0.62296000  1
  C  C159  1  0.29250000  0.79119000  0.37704000  1
  C  C160  1  0.29280000  0.11109000  0.06662000  1
  C  C161  1  0.29280000  0.88891000  0.93338000  1
  C  C162  1  0.29916000  0.21589000  0.51022000  1
  C  C163  1  0.29916000  0.78411000  0.48978000  1
  C  C164  1  0.30308000  0.22155000  0.39515000  1
  C  C165  1  0.30308000  0.77845000  0.60485000  1
  C  C166  1  0.32650000  0.21016000  0.56518000  1
  C  C167  1  0.32650000  0.78984000  0.43482000  1
  C  C168  1  0.33257000  0.21600000  0.45670000  1
  C  C169  1  0.33257000  0.78400000  0.54330000  1
  C  C170  1  0.37704000  0.29250000  0.79119000  1
  C  C171  1  0.37704000  0.70750000  0.20881000  1
  C  C172  1  0.38891000  0.20720000  0.56662000  1
  C  C173  1  0.38891000  0.79280000  0.43338000  1
  C  C174  1  0.39375000  0.21230000  0.46057000  1
  C  C175  1  0.39375000  0.78770000  0.53943000  1
  C  C176  1  0.39515000  0.30308000  0.22155000  1
  C  C177  1  0.39515000  0.69692000  0.77845000  1
  C  C178  1  0.42166000  0.21070000  0.51519000  1
  C  C179  1  0.42166000  0.78930000  0.48481000  1
  C  C180  1  0.43338000  0.38891000  0.79280000  1
  C  C181  1  0.43338000  0.61109000  0.20720000  1
  C  C182  1  0.43482000  0.32650000  0.78984000  1
  C  C183  1  0.43482000  0.67350000  0.21016000  1
  C  C184  1  0.45670000  0.33257000  0.21600000  1
  C  C185  1  0.45670000  0.66743000  0.78400000  1
  C  C186  1  0.46057000  0.39375000  0.21230000  1
  C  C187  1  0.46057000  0.60625000  0.78770000  1
  C  C188  1  0.48481000  0.42166000  0.78930000  1
  C  C189  1  0.48481000  0.57834000  0.21070000  1
  C  C190  1  0.48978000  0.29916000  0.78411000  1
  C  C191  1  0.48978000  0.70084000  0.21589000  1
  C  C192  1  0.51022000  0.29916000  0.21589000  1
  C  C193  1  0.51022000  0.70084000  0.78411000  1
  C  C194  1  0.51519000  0.42166000  0.21070000  1
  C  C195  1  0.51519000  0.57834000  0.78930000  1
  C  C196  1  0.53943000  0.39375000  0.78770000  1
  C  C197  1  0.53943000  0.60625000  0.21230000  1
  C  C198  1  0.54330000  0.33257000  0.78400000  1
  C  C199  1  0.54330000  0.66743000  0.21600000  1
  C  C200  1  0.56518000  0.32650000  0.21016000  1
  C  C201  1  0.56518000  0.67350000  0.78984000  1
  C  C202  1  0.56662000  0.38891000  0.20720000  1
  C  C203  1  0.56662000  0.61109000  0.79280000  1
  C  C204  1  0.57834000  0.21070000  0.48481000  1
  C  C205  1  0.57834000  0.78930000  0.51519000  1
  C  C206  1  0.60485000  0.30308000  0.77845000  1
  C  C207  1  0.60485000  0.69692000  0.22155000  1
  C  C208  1  0.60625000  0.21230000  0.53943000  1
  C  C209  1  0.60625000  0.78770000  0.46057000  1
  C  C210  1  0.61109000  0.20720000  0.43338000  1
  C  C211  1  0.61109000  0.79280000  0.56662000  1
  C  C212  1  0.62296000  0.29250000  0.20881000  1
  C  C213  1  0.62296000  0.70750000  0.79119000  1
  C  C214  1  0.66743000  0.21600000  0.54330000  1
  C  C215  1  0.66743000  0.78400000  0.45670000  1
  C  C216  1  0.67350000  0.21016000  0.43482000  1
  C  C217  1  0.67350000  0.78984000  0.56518000  1
  C  C218  1  0.69692000  0.22155000  0.60485000  1
  C  C219  1  0.69692000  0.77845000  0.39515000  1
  C  C220  1  0.70084000  0.21589000  0.48978000  1
  C  C221  1  0.70084000  0.78411000  0.51022000  1
  C  C222  1  0.70720000  0.11109000  0.93338000  1
  C  C223  1  0.70720000  0.88891000  0.06662000  1
  C  C224  1  0.70750000  0.20881000  0.37704000  1
  C  C225  1  0.70750000  0.79119000  0.62296000  1
  C  C226  1  0.70881000  0.20750000  0.87704000  1
  C  C227  1  0.70881000  0.79250000  0.12296000  1
  C  C228  1  0.71016000  0.17350000  0.93482000  1
  C  C229  1  0.71016000  0.82650000  0.06518000  1
  C  C230  1  0.71070000  0.07834000  0.98481000  1
  C  C231  1  0.71070000  0.92166000  0.01519000  1
  C  C232  1  0.71230000  0.10625000  0.03943000  1
  C  C233  1  0.71230000  0.89375000  0.96057000  1
  C  C234  1  0.71589000  0.20084000  0.98978000  1
  C  C235  1  0.71589000  0.79916000  0.01022000  1
  C  C236  1  0.71600000  0.16743000  0.04330000  1
  C  C237  1  0.71600000  0.83257000  0.95670000  1
  C  C238  1  0.72155000  0.19692000  0.10485000  1
  C  C239  1  0.72155000  0.80308000  0.89515000  1
  C  C240  1  0.77845000  0.39515000  0.69692000  1
  C  C241  1  0.77845000  0.60485000  0.30308000  1
  C  C242  1  0.78400000  0.45670000  0.66743000  1
  C  C243  1  0.78400000  0.54330000  0.33257000  1
  C  C244  1  0.78411000  0.48978000  0.29916000  1
  C  C245  1  0.78411000  0.51022000  0.70084000  1
  C  C246  1  0.78770000  0.46057000  0.60625000  1
  C  C247  1  0.78770000  0.53943000  0.39375000  1
  C  C248  1  0.78930000  0.48481000  0.42166000  1
  C  C249  1  0.78930000  0.51519000  0.57834000  1
  C  C250  1  0.78984000  0.43482000  0.32650000  1
  C  C251  1  0.78984000  0.56518000  0.67350000  1
  C  C252  1  0.79119000  0.37704000  0.29250000  1
  C  C253  1  0.79119000  0.62296000  0.70750000  1
  C  C254  1  0.79250000  0.12296000  0.70881000  1
  C  C255  1  0.79250000  0.87704000  0.29119000  1
  C  C256  1  0.79280000  0.43338000  0.38891000  1
  C  C257  1  0.79280000  0.56662000  0.61109000  1
  C  C258  1  0.79916000  0.01022000  0.71589000  1
  C  C259  1  0.79916000  0.98978000  0.28411000  1
  C  C260  1  0.80308000  0.10485000  0.27845000  1
  C  C261  1  0.80308000  0.89515000  0.72155000  1
  C  C262  1  0.82650000  0.06518000  0.71016000  1
  C  C263  1  0.82650000  0.93482000  0.28984000  1
  C  C264  1  0.83257000  0.04330000  0.28400000  1
  C  C265  1  0.83257000  0.95670000  0.71600000  1
  C  C266  1  0.87704000  0.29119000  0.79250000  1
  C  C267  1  0.87704000  0.70881000  0.20750000  1
  C  C268  1  0.88891000  0.06662000  0.70720000  1
  C  C269  1  0.88891000  0.93338000  0.29280000  1
  C  C270  1  0.89375000  0.03943000  0.28770000  1
  C  C271  1  0.89375000  0.96057000  0.71230000  1
  C  C272  1  0.89515000  0.27845000  0.19692000  1
  C  C273  1  0.89515000  0.72155000  0.80308000  1
  C  C274  1  0.92166000  0.01519000  0.71070000  1
  C  C275  1  0.92166000  0.98481000  0.28930000  1
  C  C276  1  0.93338000  0.29280000  0.88891000  1
  C  C277  1  0.93338000  0.70720000  0.11109000  1
  C  C278  1  0.93482000  0.28984000  0.82650000  1
  C  C279  1  0.93482000  0.71016000  0.17350000  1
  C  C280  1  0.95670000  0.28400000  0.16743000  1
  C  C281  1  0.95670000  0.71600000  0.83257000  1
  C  C282  1  0.96057000  0.28770000  0.10625000  1
  C  C283  1  0.96057000  0.71230000  0.89375000  1
  C  C284  1  0.98481000  0.28930000  0.92166000  1
  C  C285  1  0.98481000  0.71070000  0.07834000  1
  C  C286  1  0.98978000  0.28411000  0.79916000  1
  C  C287  1  0.98978000  0.71589000  0.20084000  1
  N  N288  1  0.01353000  0.02248000  0.29350000  1
  N  N289  1  0.01353000  0.97752000  0.70650000  1
  N  N290  1  0.02248000  0.29350000  0.01353000  1
  N  N291  1  0.02248000  0.70650000  0.98647000  1
  N  N292  1  0.20650000  0.47752000  0.51353000  1
  N  N293  1  0.20650000  0.52248000  0.48647000  1
  N  N294  1  0.29350000  0.01353000  0.02248000  1
  N  N295  1  0.29350000  0.98647000  0.97752000  1
  N  N296  1  0.47752000  0.48647000  0.79350000  1
  N  N297  1  0.47752000  0.51353000  0.20650000  1
  N  N298  1  0.48647000  0.20650000  0.52248000  1
  N  N299  1  0.48647000  0.79350000  0.47752000  1
  N  N300  1  0.51353000  0.20650000  0.47752000  1
  N  N301  1  0.51353000  0.79350000  0.52248000  1
  N  N302  1  0.52248000  0.48647000  0.20650000  1
  N  N303  1  0.52248000  0.51353000  0.79350000  1
  N  N304  1  0.70650000  0.01353000  0.97752000  1
  N  N305  1  0.70650000  0.98647000  0.02248000  1
  N  N306  1  0.79350000  0.47752000  0.48647000  1
  N  N307  1  0.79350000  0.52248000  0.51353000  1
  N  N308  1  0.97752000  0.29350000  0.98647000  1
  N  N309  1  0.97752000  0.70650000  0.01353000  1
  N  N310  1  0.98647000  0.02248000  0.70650000  1
  N  N311  1  0.98647000  0.97752000  0.29350000  1
  O  O312  1  0.10656000  0.26062000  0.75019000  1
  O  O313  1  0.10656000  0.73938000  0.24981000  1
  O  O314  1  0.12159000  0.27681000  0.26170000  1
  O  O315  1  0.12159000  0.72319000  0.73830000  1
  O  O316  1  0.14809000  0.29250000  0.83595000  1
  O  O317  1  0.14809000  0.70750000  0.16405000  1
  O  O318  1  0.16405000  0.14809000  0.70750000  1
  O  O319  1  0.16405000  0.85191000  0.29250000  1
  O  O320  1  0.16920000  0.30583000  0.17747000  1
  O  O321  1  0.16920000  0.69417000  0.82253000  1
  O  O322  1  0.17747000  0.16920000  0.30583000  1
  O  O323  1  0.17747000  0.83080000  0.69417000  1
  O  O324  1  0.19417000  0.33080000  0.67747000  1
  O  O325  1  0.19417000  0.66920000  0.32253000  1
  O  O326  1  0.20750000  0.35191000  0.33595000  1
  O  O327  1  0.20750000  0.64809000  0.66405000  1
  O  O328  1  0.22319000  0.37841000  0.76170000  1
  O  O329  1  0.22319000  0.62159000  0.23830000  1
  O  O330  1  0.23806000  0.23806000  0.76194000  1
  O  O331  1  0.23806000  0.76194000  0.23806000  1
  O  O332  1  0.23830000  0.22319000  0.62159000  1
  O  O333  1  0.23830000  0.77681000  0.37841000  1
  O  O334  1  0.23938000  0.39344000  0.25019000  1
  O  O335  1  0.23938000  0.60656000  0.74981000  1
  O  O336  1  0.24981000  0.10656000  0.73938000  1
  O  O337  1  0.24981000  0.89344000  0.26062000  1
  O  O338  1  0.25019000  0.23938000  0.39344000  1
  O  O339  1  0.25019000  0.76062000  0.60656000  1
  O  O340  1  0.26062000  0.24981000  0.89344000  1
  O  O341  1  0.26062000  0.75019000  0.10656000  1
  O  O342  1  0.26170000  0.12159000  0.27681000  1
  O  O343  1  0.26170000  0.87841000  0.72319000  1
  O  O344  1  0.26194000  0.26194000  0.26194000  1
  O  O345  1  0.26194000  0.73806000  0.73806000  1
  O  O346  1  0.27681000  0.26170000  0.12159000  1
  O  O347  1  0.27681000  0.73830000  0.87841000  1
  O  O348  1  0.29250000  0.16405000  0.85191000  1
  O  O349  1  0.29250000  0.83595000  0.14809000  1
  O  O350  1  0.30583000  0.17747000  0.16920000  1
  O  O351  1  0.30583000  0.82253000  0.83080000  1
  O  O352  1  0.32253000  0.19417000  0.66920000  1
  O  O353  1  0.32253000  0.80583000  0.33080000  1
  O  O354  1  0.33080000  0.32253000  0.80583000  1
  O  O355  1  0.33080000  0.67747000  0.19417000  1
  O  O356  1  0.33595000  0.20750000  0.35191000  1
  O  O357  1  0.33595000  0.79250000  0.64809000  1
  O  O358  1  0.35191000  0.33595000  0.20750000  1
  O  O359  1  0.35191000  0.66405000  0.79250000  1
  O  O360  1  0.37841000  0.23830000  0.77681000  1
  O  O361  1  0.37841000  0.76170000  0.22319000  1
  O  O362  1  0.39344000  0.25019000  0.23938000  1
  O  O363  1  0.39344000  0.74981000  0.76062000  1
  O  O364  1  0.60656000  0.25019000  0.76062000  1
  O  O365  1  0.60656000  0.74981000  0.23938000  1
  O  O366  1  0.62159000  0.23830000  0.22319000  1
  O  O367  1  0.62159000  0.76170000  0.77681000  1
  O  O368  1  0.64809000  0.33595000  0.79250000  1
  O  O369  1  0.64809000  0.66405000  0.20750000  1
  O  O370  1  0.66405000  0.20750000  0.64809000  1
  O  O371  1  0.66405000  0.79250000  0.35191000  1
  O  O372  1  0.66920000  0.32253000  0.19417000  1
  O  O373  1  0.66920000  0.67747000  0.80583000  1
  O  O374  1  0.67747000  0.19417000  0.33080000  1
  O  O375  1  0.67747000  0.80583000  0.66920000  1
  O  O376  1  0.69417000  0.17747000  0.83080000  1
  O  O377  1  0.69417000  0.82253000  0.16920000  1
  O  O378  1  0.70750000  0.16405000  0.14809000  1
  O  O379  1  0.70750000  0.83595000  0.85191000  1
  O  O380  1  0.72319000  0.26170000  0.87841000  1
  O  O381  1  0.72319000  0.73830000  0.12159000  1
  O  O382  1  0.73806000  0.26194000  0.73806000  1
  O  O383  1  0.73806000  0.73806000  0.26194000  1
  O  O384  1  0.73830000  0.12159000  0.72319000  1
  O  O385  1  0.73830000  0.87841000  0.27681000  1
  O  O386  1  0.73938000  0.24981000  0.10656000  1
  O  O387  1  0.73938000  0.75019000  0.89344000  1
  O  O388  1  0.74981000  0.23938000  0.60656000  1
  O  O389  1  0.74981000  0.76062000  0.39344000  1
  O  O390  1  0.75019000  0.10656000  0.26062000  1
  O  O391  1  0.75019000  0.89344000  0.73938000  1
  O  O392  1  0.76062000  0.39344000  0.74981000  1
  O  O393  1  0.76062000  0.60656000  0.25019000  1
  O  O394  1  0.76170000  0.22319000  0.37841000  1
  O  O395  1  0.76170000  0.77681000  0.62159000  1
  O  O396  1  0.76194000  0.23806000  0.23806000  1
  O  O397  1  0.76194000  0.76194000  0.76194000  1
  O  O398  1  0.77681000  0.37841000  0.23830000  1
  O  O399  1  0.77681000  0.62159000  0.76170000  1
  O  O400  1  0.79250000  0.35191000  0.66405000  1
  O  O401  1  0.79250000  0.64809000  0.33595000  1
  O  O402  1  0.80583000  0.33080000  0.32253000  1
  O  O403  1  0.80583000  0.66920000  0.67747000  1
  O  O404  1  0.82253000  0.16920000  0.69417000  1
  O  O405  1  0.82253000  0.83080000  0.30583000  1
  O  O406  1  0.83080000  0.30583000  0.82253000  1
  O  O407  1  0.83080000  0.69417000  0.17747000  1
  O  O408  1  0.83595000  0.14809000  0.29250000  1
  O  O409  1  0.83595000  0.85191000  0.70750000  1
  O  O410  1  0.85191000  0.29250000  0.16405000  1
  O  O411  1  0.85191000  0.70750000  0.83595000  1
  O  O412  1  0.87841000  0.27681000  0.73830000  1
  O  O413  1  0.87841000  0.72319000  0.26170000  1
  O  O414  1  0.89344000  0.26062000  0.24981000  1
  O  O415  1  0.89344000  0.73938000  0.75019000  1
