# generated using pymatgen
data_CeH8C15NO7
_symmetry_space_group_name_H-M   'P 1'
_cell_length_a   9.60470000
_cell_length_b   10.04270000
_cell_length_c   11.45890000
_cell_angle_alpha   96.12600000
_cell_angle_beta   97.20650000
_cell_angle_gamma   111.85900000
_symmetry_Int_Tables_number   1
_chemical_formula_structural   CeH8C15NO7
_chemical_formula_sum   'Ce2 H16 C30 N2 O14'
_cell_volume   1003.49460098
_cell_formula_units_Z   2
loop_
 _symmetry_equiv_pos_site_id
 _symmetry_equiv_pos_as_xyz
  1  'x, y, z'
loop_
 _atom_site_type_symbol
 _atom_site_label
 _atom_site_symmetry_multiplicity
 _atom_site_fract_x
 _atom_site_fract_y
 _atom_site_fract_z
 _atom_site_occupancy
  Ce  Ce0  1  0.28676000  0.04508000  0.99178000  1
  Ce  Ce1  1  0.71324000  0.95492000  0.00822000  1
  H  H2  1  0.05020000  0.10720000  0.41830000  1
  H  H3  1  0.07770000  0.63840000  0.84460000  1
  H  H4  1  0.16780000  0.15270000  0.68150000  1
  H  H5  1  0.17100000  0.59040000  0.41860000  1
  H  H6  1  0.19600000  0.78960000  0.21190000  1
  H  H7  1  0.25420000  0.70320000  0.61780000  1
  H  H8  1  0.26210000  0.30380000  0.68460000  1
  H  H9  1  0.31770000  0.49490000  0.02630000  1
  H  H10  1  0.68230000  0.50510000  0.97370000  1
  H  H11  1  0.73790000  0.69620000  0.31540000  1
  H  H12  1  0.74580000  0.29680000  0.38220000  1
  H  H13  1  0.80400000  0.21040000  0.78810000  1
  H  H14  1  0.82900000  0.40960000  0.58140000  1
  H  H15  1  0.83220000  0.84730000  0.31850000  1
  H  H16  1  0.92230000  0.36160000  0.15540000  1
  H  H17  1  0.94980000  0.89280000  0.58170000  1
  C  C18  1  0.00630000  0.16950000  0.45170000  1
  C  C19  1  0.00900000  0.67370000  0.38260000  1
  C  C20  1  0.01370000  0.43710000  0.14600000  1
  C  C21  1  0.05020000  0.57890000  0.19800000  1
  C  C22  1  0.05930000  0.23810000  0.56930000  1
  C  C23  1  0.07820000  0.25300000  0.02260000  1
  C  C24  1  0.11040000  0.80920000  0.61820000  1
  C  C25  1  0.11310000  0.40680000  0.07950000  1
  C  C26  1  0.12570000  0.65150000  0.45200000  1
  C  C27  1  0.17040000  0.89050000  0.74270000  1
  C  C28  1  0.17540000  0.71890000  0.56990000  1
  C  C29  1  0.17770000  0.69180000  0.18090000  1
  C  C30  1  0.24750000  0.51700000  0.06800000  1
  C  C31  1  0.27950000  0.66030000  0.11740000  1
  C  C32  1  0.42200000  0.77890000  0.10120000  1
  C  C33  1  0.57800000  0.22110000  0.89880000  1
  C  C34  1  0.72050000  0.33970000  0.88260000  1
  C  C35  1  0.75250000  0.48300000  0.93200000  1
  C  C36  1  0.82230000  0.30820000  0.81910000  1
  C  C37  1  0.82460000  0.28110000  0.43010000  1
  C  C38  1  0.82960000  0.10950000  0.25730000  1
  C  C39  1  0.87430000  0.34850000  0.54800000  1
  C  C40  1  0.88690000  0.59320000  0.92050000  1
  C  C41  1  0.88960000  0.19080000  0.38180000  1
  C  C42  1  0.92180000  0.74700000  0.97740000  1
  C  C43  1  0.94070000  0.76190000  0.43070000  1
  C  C44  1  0.94980000  0.42110000  0.80200000  1
  C  C45  1  0.98630000  0.56290000  0.85400000  1
  C  C46  1  0.99100000  0.32630000  0.61740000  1
  C  C47  1  0.99370000  0.83050000  0.54830000  1
  N  N48  1  0.18210000  0.22510000  0.64030000  1
  N  N49  1  0.81790000  0.77490000  0.35970000  1
  O  O50  1  0.05060000  0.39220000  0.73460000  1
  O  O51  1  0.05390000  0.84060000  0.98390000  1
  O  O52  1  0.11820000  0.98240000  0.78230000  1
  O  O53  1  0.18300000  0.22650000  0.98310000  1
  O  O54  1  0.27560000  0.87030000  0.80790000  1
  O  O55  1  0.41920000  0.89970000  0.07770000  1
  O  O56  1  0.45630000  0.24270000  0.89010000  1
  O  O57  1  0.54370000  0.75730000  0.10990000  1
  O  O58  1  0.58080000  0.10030000  0.92230000  1
  O  O59  1  0.72440000  0.12970000  0.19210000  1
  O  O60  1  0.81700000  0.77350000  0.01690000  1
  O  O61  1  0.88180000  0.01760000  0.21770000  1
  O  O62  1  0.94610000  0.15940000  0.01610000  1
  O  O63  1  0.94940000  0.60780000  0.26540000  1
