# generated using pymatgen
data_MnH6(C8O3)2
_symmetry_space_group_name_H-M   'P 1'
_cell_length_a   14.69100000
_cell_length_b   14.81800000
_cell_length_c   17.71300000
_cell_angle_alpha   98.13000000
_cell_angle_beta   93.10000000
_cell_angle_gamma   115.29000000
_symmetry_Int_Tables_number   1
_chemical_formula_structural   MnH6(C8O3)2
_chemical_formula_sum   'Mn7 H42 C112 O42'
_cell_volume   3423.00630989
_cell_formula_units_Z   7
loop_
 _symmetry_equiv_pos_site_id
 _symmetry_equiv_pos_as_xyz
  1  'x, y, z'
loop_
 _atom_site_type_symbol
 _atom_site_label
 _atom_site_symmetry_multiplicity
 _atom_site_fract_x
 _atom_site_fract_y
 _atom_site_fract_z
 _atom_site_occupancy
  Mn  Mn0  1  0.00000000  0.00000000  0.00000000  1
  Mn  Mn1  1  0.03018000  0.99143000  0.78246000  1
  Mn  Mn2  1  0.24443000  0.23847000  0.74230000  1
  Mn  Mn3  1  0.48610000  0.45960000  0.71660000  1
  Mn  Mn4  1  0.51390000  0.54040000  0.28340000  1
  Mn  Mn5  1  0.75557000  0.76153000  0.25770000  1
  Mn  Mn6  1  0.96982000  0.00857000  0.21754000  1
  H  H7  1  0.00760000  0.31100000  0.17380000  1
  H  H8  1  0.05750000  0.81150000  0.02890000  1
  H  H9  1  0.06580000  0.36540000  0.61890000  1
  H  H10  1  0.08020000  0.38760000  0.82520000  1
  H  H11  1  0.14550000  0.71640000  0.99170000  1
  H  H12  1  0.17610000  0.13320000  0.55450000  1
  H  H13  1  0.21180000  0.87760000  0.59650000  1
  H  H14  1  0.21710000  0.28210000  0.04480000  1
  H  H15  1  0.24570000  0.59440000  0.46790000  1
  H  H16  1  0.24660000  0.90680000  0.02090000  1
  H  H17  1  0.25850000  0.44910000  0.00740000  1
  H  H18  1  0.28400000  0.15370000  0.46470000  1
  H  H19  1  0.31680000  0.00060000  0.81970000  1
  H  H20  1  0.33680000  0.52890000  0.54350000  1
  H  H21  1  0.35330000  0.20420000  0.04740000  1
  H  H22  1  0.36800000  0.33050000  0.96280000  1
  H  H23  1  0.42160000  0.72670000  0.13300000  1
  H  H24  1  0.42610000  0.07050000  0.72410000  1
  H  H25  1  0.43820000  0.77050000  0.44070000  1
  H  H26  1  0.44610000  0.95140000  0.81740000  1
  H  H27  1  0.49710000  0.95490000  0.69030000  1
  H  H28  1  0.50290000  0.04510000  0.30970000  1
  H  H29  1  0.55390000  0.04860000  0.18260000  1
  H  H30  1  0.56180000  0.22950000  0.55930000  1
  H  H31  1  0.57390000  0.92950000  0.27590000  1
  H  H32  1  0.57840000  0.27330000  0.86700000  1
  H  H33  1  0.63200000  0.66950000  0.03720000  1
  H  H34  1  0.64670000  0.79580000  0.95260000  1
  H  H35  1  0.66320000  0.47110000  0.45650000  1
  H  H36  1  0.68320000  0.99940000  0.18030000  1
  H  H37  1  0.71600000  0.84630000  0.53530000  1
  H  H38  1  0.74150000  0.55090000  0.99260000  1
  H  H39  1  0.75340000  0.09320000  0.97910000  1
  H  H40  1  0.75430000  0.40560000  0.53210000  1
  H  H41  1  0.78290000  0.71790000  0.95520000  1
  H  H42  1  0.78820000  0.12240000  0.40350000  1
  H  H43  1  0.82390000  0.86680000  0.44550000  1
  H  H44  1  0.85450000  0.28360000  0.00830000  1
  H  H45  1  0.91980000  0.61240000  0.17480000  1
  H  H46  1  0.93420000  0.63460000  0.38110000  1
  H  H47  1  0.94250000  0.18850000  0.97110000  1
  H  H48  1  0.99240000  0.68900000  0.82620000  1
  C  C49  1  0.00770000  0.26980000  0.88850000  1
  C  C50  1  0.02210000  0.49290000  0.15440000  1
  C  C51  1  0.03010000  0.58210000  0.11380000  1
  C  C52  1  0.03060000  0.36330000  0.85910000  1
  C  C53  1  0.05150000  0.75610000  0.05290000  1
  C  C54  1  0.05220000  0.57270000  0.45280000  1
  C  C55  1  0.05270000  0.45590000  0.54510000  1
  C  C56  1  0.05720000  0.33920000  0.14080000  1
  C  C57  1  0.06530000  0.20570000  0.85160000  1
  C  C58  1  0.07610000  0.43430000  0.12040000  1
  C  C59  1  0.08480000  0.18120000  0.13310000  1
  C  C60  1  0.09350000  0.61290000  0.06150000  1
  C  C61  1  0.10230000  0.69750000  0.03040000  1
  C  C62  1  0.10250000  0.41200000  0.58730000  1
  C  C63  1  0.11150000  0.28740000  0.11230000  1
  C  C64  1  0.11510000  0.53580000  0.50890000  1
  C  C65  1  0.12840000  0.99570000  0.65960000  1
  C  C66  1  0.14340000  0.46960000  0.07170000  1
  C  C67  1  0.16050000  0.56360000  0.03390000  1
  C  C68  1  0.17870000  0.99050000  0.91650000  1
  C  C69  1  0.18340000  0.32160000  0.06320000  1
  C  C70  1  0.18970000  0.00940000  0.59430000  1
  C  C71  1  0.20470000  0.43630000  0.58320000  1
  C  C72  1  0.20770000  0.08910000  0.54600000  1
  C  C73  1  0.20780000  0.42000000  0.03950000  1
  C  C74  1  0.21110000  0.55160000  0.50240000  1
  C  C75  1  0.22840000  0.93450000  0.57190000  1
  C  C76  1  0.26170000  0.38970000  0.63600000  1
  C  C77  1  0.26620000  0.50920000  0.54360000  1
  C  C78  1  0.26750000  0.09840000  0.49120000  1
  C  C79  1  0.27110000  0.96170000  0.92150000  1
  C  C80  1  0.28950000  0.91850000  0.98140000  1
  C  C81  1  0.29020000  0.94910000  0.51320000  1
  C  C82  1  0.30810000  0.02670000  0.47110000  1
  C  C83  1  0.32990000  0.97140000  0.86090000  1
  C  C84  1  0.34000000  0.87400000  0.49570000  1
  C  C85  1  0.36920000  0.89220000  0.98490000  1
  C  C86  1  0.37710000  0.04520000  0.40850000  1
  C  C87  1  0.38040000  0.83700000  0.04990000  1
  C  C88  1  0.40450000  0.88880000  0.43220000  1
  C  C89  1  0.40560000  0.94070000  0.85830000  1
  C  C90  1  0.40570000  0.22460000  0.01540000  1
  C  C91  1  0.40690000  0.29320000  0.95770000  1
  C  C92  1  0.42260000  0.89180000  0.91920000  1
  C  C93  1  0.42730000  0.97440000  0.39110000  1
  C  C94  1  0.43300000  0.22980000  0.66680000  1
  C  C95  1  0.44900000  0.82450000  0.41370000  1
  C  C96  1  0.45430000  0.36240000  0.84710000  1
  C  C97  1  0.45910000  0.79210000  0.03990000  1
  C  C98  1  0.46110000  0.29960000  0.90270000  1
  C  C99  1  0.46670000  0.73840000  0.09510000  1
  C  C100  1  0.46860000  0.07990000  0.68450000  1
  C  C101  1  0.48300000  0.19190000  0.02060000  1
  C  C102  1  0.48850000  0.15930000  0.64680000  1
  C  C103  1  0.48850000  0.98930000  0.33540000  1
  C  C104  1  0.49340000  0.14270000  0.08060000  1
  C  C105  1  0.50660000  0.85730000  0.91940000  1
  C  C106  1  0.51150000  0.01070000  0.66460000  1
  C  C107  1  0.51150000  0.84070000  0.35320000  1
  C  C108  1  0.51700000  0.80810000  0.97940000  1
  C  C109  1  0.53140000  0.92010000  0.31550000  1
  C  C110  1  0.53330000  0.26160000  0.90490000  1
  C  C111  1  0.53890000  0.70040000  0.09730000  1
  C  C112  1  0.54090000  0.20790000  0.96010000  1
  C  C113  1  0.54570000  0.63760000  0.15290000  1
  C  C114  1  0.55100000  0.17550000  0.58630000  1
  C  C115  1  0.56700000  0.77020000  0.33320000  1
  C  C116  1  0.57270000  0.02560000  0.60890000  1
  C  C117  1  0.57740000  0.10820000  0.08080000  1
  C  C118  1  0.59310000  0.70680000  0.04230000  1
  C  C119  1  0.59430000  0.77540000  0.98460000  1
  C  C120  1  0.59440000  0.05930000  0.14170000  1
  C  C121  1  0.59550000  0.11120000  0.56780000  1
  C  C122  1  0.61960000  0.16300000  0.95010000  1
  C  C123  1  0.62290000  0.95480000  0.59150000  1
  C  C124  1  0.63080000  0.10780000  0.01510000  1
  C  C125  1  0.66000000  0.12600000  0.50430000  1
  C  C126  1  0.67010000  0.02860000  0.13910000  1
  C  C127  1  0.69190000  0.97330000  0.52890000  1
  C  C128  1  0.70980000  0.05090000  0.48680000  1
  C  C129  1  0.71050000  0.08150000  0.01860000  1
  C  C130  1  0.72890000  0.03830000  0.07850000  1
  C  C131  1  0.73250000  0.90160000  0.50880000  1
  C  C132  1  0.73380000  0.49080000  0.45640000  1
  C  C133  1  0.73830000  0.61030000  0.36400000  1
  C  C134  1  0.77160000  0.06550000  0.42810000  1
  C  C135  1  0.78890000  0.44840000  0.49760000  1
  C  C136  1  0.79220000  0.58000000  0.96050000  1
  C  C137  1  0.79230000  0.91090000  0.45400000  1
  C  C138  1  0.79530000  0.56370000  0.41680000  1
  C  C139  1  0.81030000  0.99060000  0.40570000  1
  C  C140  1  0.81660000  0.67840000  0.93680000  1
  C  C141  1  0.82130000  0.00950000  0.08350000  1
  C  C142  1  0.83950000  0.43640000  0.96610000  1
  C  C143  1  0.85660000  0.53040000  0.92830000  1
  C  C144  1  0.87160000  0.00430000  0.34040000  1
  C  C145  1  0.88490000  0.46420000  0.49110000  1
  C  C146  1  0.88850000  0.71260000  0.88770000  1
  C  C147  1  0.89750000  0.58800000  0.41270000  1
  C  C148  1  0.89770000  0.30250000  0.96960000  1
  C  C149  1  0.90650000  0.38710000  0.93850000  1
  C  C150  1  0.91520000  0.81880000  0.86690000  1
  C  C151  1  0.92390000  0.56570000  0.87960000  1
  C  C152  1  0.93470000  0.79430000  0.14840000  1
  C  C153  1  0.94280000  0.66080000  0.85920000  1
  C  C154  1  0.94730000  0.54410000  0.45490000  1
  C  C155  1  0.94780000  0.42730000  0.54720000  1
  C  C156  1  0.94850000  0.24390000  0.94710000  1
  C  C157  1  0.96940000  0.63670000  0.14090000  1
  C  C158  1  0.96990000  0.41790000  0.88620000  1
  C  C159  1  0.97790000  0.50710000  0.84560000  1
  C  C160  1  0.99230000  0.73020000  0.11150000  1
  O  O161  1  0.02840000  0.11900000  0.86720000  1
  O  O162  1  0.04080000  0.53910000  0.80300000  1
  O  O163  1  0.04170000  0.15860000  0.19410000  1
  O  O164  1  0.07640000  0.91380000  0.67930000  1
  O  O165  1  0.10080000  0.11970000  0.08270000  1
  O  O166  1  0.10920000  0.64340000  0.41530000  1
  O  O167  1  0.12200000  0.97050000  0.96740000  1
  O  O168  1  0.13330000  0.08500000  0.69870000  1
  O  O169  1  0.13560000  0.24920000  0.81720000  1
  O  O170  1  0.16620000  0.02230000  0.85460000  1
  O  O171  1  0.20880000  0.31810000  0.66240000  1
  O  O172  1  0.22340000  0.60180000  0.99300000  1
  O  O173  1  0.32740000  0.81010000  0.53380000  1
  O  O174  1  0.33900000  0.83920000  0.10490000  1
  O  O175  1  0.35740000  0.43960000  0.64240000  1
  O  O176  1  0.36340000  0.19640000  0.70760000  1
  O  O177  1  0.37200000  0.35860000  0.82290000  1
  O  O178  1  0.39360000  0.11390000  0.37070000  1
  O  O179  1  0.43720000  0.12360000  0.13360000  1
  O  O180  1  0.46760000  0.58840000  0.18650000  1
  O  O181  1  0.47620000  0.31530000  0.64970000  1
  O  O182  1  0.52380000  0.68470000  0.35030000  1
  O  O183  1  0.53240000  0.41160000  0.81350000  1
  O  O184  1  0.56280000  0.87640000  0.86640000  1
  O  O185  1  0.60640000  0.88610000  0.62930000  1
  O  O186  1  0.62800000  0.64140000  0.17710000  1
  O  O187  1  0.63660000  0.80360000  0.29240000  1
  O  O188  1  0.64260000  0.56040000  0.35760000  1
  O  O189  1  0.66100000  0.16080000  0.89510000  1
  O  O190  1  0.67260000  0.18990000  0.46620000  1
  O  O191  1  0.77660000  0.39820000  0.00700000  1
  O  O192  1  0.79120000  0.68190000  0.33760000  1
  O  O193  1  0.83380000  0.97770000  0.14540000  1
  O  O194  1  0.86440000  0.75080000  0.18280000  1
  O  O195  1  0.86670000  0.91500000  0.30130000  1
  O  O196  1  0.87800000  0.02950000  0.03260000  1
  O  O197  1  0.89080000  0.35660000  0.58470000  1
  O  O198  1  0.89920000  0.88030000  0.91730000  1
  O  O199  1  0.92360000  0.08620000  0.32070000  1
  O  O200  1  0.95830000  0.84140000  0.80590000  1
  O  O201  1  0.95920000  0.46090000  0.19700000  1
  O  O202  1  0.97160000  0.88100000  0.13280000  1
