# generated using pymatgen
data_Ni2H72C60N4O5
_symmetry_space_group_name_H-M   'P 1'
_cell_length_a   14.90700000
_cell_length_b   25.53100000
_cell_length_c   25.53100000
_cell_angle_alpha   120.00000000
_cell_angle_beta   90.00000000
_cell_angle_gamma   90.00000000
_symmetry_Int_Tables_number   1
_chemical_formula_structural   Ni2H72C60N4O5
_chemical_formula_sum   'Ni6 H216 C180 N12 O15'
_cell_volume   8415.04677591
_cell_formula_units_Z   3
loop_
 _symmetry_equiv_pos_site_id
 _symmetry_equiv_pos_as_xyz
  1  'x, y, z'
loop_
 _atom_site_type_symbol
 _atom_site_label
 _atom_site_symmetry_multiplicity
 _atom_site_fract_x
 _atom_site_fract_y
 _atom_site_fract_z
 _atom_site_occupancy
  Ni  Ni0  1  0.11727000  0.55502000  0.07144000  1
  Ni  Ni1  1  0.21606000  0.48358000  0.92856000  1
  Ni  Ni2  1  0.45060000  0.92856000  0.48358000  1
  Ni  Ni3  1  0.54940000  0.07144000  0.55502000  1
  Ni  Ni4  1  0.78394000  0.51642000  0.44498000  1
  Ni  Ni5  1  0.88273000  0.44498000  0.51642000  1
  H  H6  1  0.00970000  0.64080000  0.49090000  1
  H  H7  1  0.01230000  0.24940000  0.17300000  1
  H  H8  1  0.02500000  0.64960000  0.89070000  1
  H  H9  1  0.02530000  0.74280000  0.97800000  1
  H  H10  1  0.02553000  0.50270000  0.89230000  1
  H  H11  1  0.03710000  0.58770000  0.61700000  1
  H  H12  1  0.03910000  0.32100000  0.87600000  1
  H  H13  1  0.04330000  0.29770000  0.95800000  1
  H  H14  1  0.04470000  0.33430000  0.14680000  1
  H  H15  1  0.04567000  0.50150000  0.31180000  1
  H  H16  1  0.06443000  0.45280000  0.56960000  1
  H  H17  1  0.06680000  0.68540000  0.54960000  1
  H  H18  1  0.07220000  0.67130000  0.18230000  1
  H  H19  1  0.07380000  0.38210000  0.08250000  1
  H  H20  1  0.07453000  0.00710000  0.36550000  1
  H  H21  1  0.07713000  0.05130000  0.47010000  1
  H  H22  1  0.08500000  0.74810000  0.68480000  1
  H  H23  1  0.08820000  0.77060000  0.94710000  1
  H  H24  1  0.09250000  0.31070000  0.04810000  1
  H  H25  1  0.09403000  0.93350000  0.26320000  1
  H  H26  1  0.09950000  0.35950000  0.98560000  1
  H  H27  1  0.10467000  0.50310000  0.23840000  1
  H  H28  1  0.10783000  0.84690000  0.16780000  1
  H  H29  1  0.11790000  0.53070000  0.51470000  1
  H  H30  1  0.12060000  0.56290000  0.47460000  1
  H  H31  1  0.12550000  0.57600000  0.98710000  1
  H  H32  1  0.12763000  0.09430000  0.45080000  1
  H  H33  1  0.12823000  0.76810000  0.07790000  1
  H  H34  1  0.13143000  0.96570000  0.38390000  1
  H  H35  1  0.13513000  0.47130000  0.65740000  1
  H  H36  1  0.13690000  0.75120000  0.26600000  1
  H  H37  1  0.13890000  0.72110000  0.62240000  1
  H  H38  1  0.14173000  0.05650000  0.31600000  1
  H  H39  1  0.14340000  0.66790000  0.95850000  1
  H  H40  1  0.16023000  0.73070000  0.10950000  1
  H  H41  1  0.16367000  0.35600000  0.82980000  1
  H  H42  1  0.16967000  0.52620000  0.17020000  1
  H  H43  1  0.17310000  0.62120000  0.89050000  1
  H  H44  1  0.18993000  0.70940000  0.04150000  1
  H  H45  1  0.19160000  0.74050000  0.68400000  1
  H  H46  1  0.19443000  0.09870000  0.37760000  1
  H  H47  1  0.19643000  0.48520000  0.73400000  1
  H  H48  1  0.19820000  0.81390000  0.34260000  1
  H  H49  1  0.20190000  0.58180000  0.61610000  1
  H  H50  1  0.20510000  0.69020000  0.92210000  1
  H  H51  1  0.20570000  0.64350000  0.54920000  1
  H  H52  1  0.20783000  0.58890000  0.01290000  1
  H  H53  1  0.21273000  0.08830000  0.52540000  1
  H  H54  1  0.21543000  0.01600000  0.48530000  1
  H  H55  1  0.22550000  0.67910000  0.83220000  1
  H  H56  1  0.22867000  0.26470000  0.76160000  1
  H  H57  1  0.23383000  0.37390000  0.01440000  1
  H  H58  1  0.23930000  0.67030000  0.73680000  1
  H  H59  1  0.24083000  0.26260000  0.95190000  1
  H  H60  1  0.24513000  0.82350000  0.05290000  1
  H  H61  1  0.24833000  0.06330000  0.31520000  1
  H  H62  1  0.25620000  0.58120000  0.52990000  1
  H  H63  1  0.25880000  0.64160000  0.63450000  1
  H  H64  1  0.25953000  0.29960000  0.91750000  1
  H  H65  1  0.26113000  0.48900000  0.81770000  1
  H  H66  1  0.26653000  0.13580000  0.45040000  1
  H  H67  1  0.26890000  0.88320000  0.43040000  1
  H  H68  1  0.28767000  0.18970000  0.68820000  1
  H  H69  1  0.28863000  0.18750000  0.85320000  1
  H  H70  1  0.29003000  0.33970000  0.04200000  1
  H  H71  1  0.29423000  0.44500000  0.12400000  1
  H  H72  1  0.29623000  0.97070000  0.38300000  1
  H  H73  1  0.30780000  0.61040000  0.10770000  1
  H  H74  1  0.30803000  0.76480000  0.02200000  1
  H  H75  1  0.30833000  0.75890000  0.10930000  1
  H  H76  1  0.32103000  0.07640000  0.82700000  1
  H  H77  1  0.32363000  0.14990000  0.50910000  1
  H  H78  1  0.34303000  0.50910000  0.14990000  1
  H  H79  1  0.34563000  0.82700000  0.07640000  1
  H  H80  1  0.35833000  0.10930000  0.75890000  1
  H  H81  1  0.35863000  0.02200000  0.76480000  1
  H  H82  1  0.35887000  0.10770000  0.61040000  1
  H  H83  1  0.37043000  0.38300000  0.97070000  1
  H  H84  1  0.37243000  0.12400000  0.44500000  1
  H  H85  1  0.37663000  0.04200000  0.33970000  1
  H  H86  1  0.37803000  0.85320000  0.18750000  1
  H  H87  1  0.37900000  0.68820000  0.18970000  1
  H  H88  1  0.39777000  0.43040000  0.88320000  1
  H  H89  1  0.40013000  0.45040000  0.13580000  1
  H  H90  1  0.40553000  0.81770000  0.48900000  1
  H  H91  1  0.40713000  0.91750000  0.29960000  1
  H  H92  1  0.40787000  0.63450000  0.64160000  1
  H  H93  1  0.41047000  0.52990000  0.58120000  1
  H  H94  1  0.41833000  0.31520000  0.06330000  1
  H  H95  1  0.42153000  0.05290000  0.82350000  1
  H  H96  1  0.42583000  0.95190000  0.26260000  1
  H  H97  1  0.42737000  0.73680000  0.67030000  1
  H  H98  1  0.43283000  0.01440000  0.37390000  1
  H  H99  1  0.43800000  0.76160000  0.26470000  1
  H  H100  1  0.44117000  0.83220000  0.67910000  1
  H  H101  1  0.45123000  0.48530000  0.01600000  1
  H  H102  1  0.45393000  0.52540000  0.08830000  1
  H  H103  1  0.45883000  0.01290000  0.58890000  1
  H  H104  1  0.46097000  0.54920000  0.64350000  1
  H  H105  1  0.46157000  0.92210000  0.69020000  1
  H  H106  1  0.46477000  0.61610000  0.58180000  1
  H  H107  1  0.46847000  0.34260000  0.81390000  1
  H  H108  1  0.47023000  0.73400000  0.48520000  1
  H  H109  1  0.47223000  0.37760000  0.09870000  1
  H  H110  1  0.47507000  0.68400000  0.74050000  1
  H  H111  1  0.47673000  0.04150000  0.70940000  1
  H  H112  1  0.49357000  0.89050000  0.62120000  1
  H  H113  1  0.49700000  0.17020000  0.52620000  1
  H  H114  1  0.50300000  0.82980000  0.35600000  1
  H  H115  1  0.50643000  0.10950000  0.73070000  1
  H  H116  1  0.52327000  0.95850000  0.66790000  1
  H  H117  1  0.52493000  0.31600000  0.05650000  1
  H  H118  1  0.52777000  0.62240000  0.72110000  1
  H  H119  1  0.52977000  0.26600000  0.75120000  1
  H  H120  1  0.53153000  0.65740000  0.47130000  1
  H  H121  1  0.53523000  0.38390000  0.96570000  1
  H  H122  1  0.53843000  0.07790000  0.76810000  1
  H  H123  1  0.53903000  0.45080000  0.09430000  1
  H  H124  1  0.54117000  0.98710000  0.57600000  1
  H  H125  1  0.54607000  0.47460000  0.56290000  1
  H  H126  1  0.54877000  0.51470000  0.53070000  1
  H  H127  1  0.55883000  0.16780000  0.84690000  1
  H  H128  1  0.56200000  0.23840000  0.50310000  1
  H  H129  1  0.56717000  0.98560000  0.35950000  1
  H  H130  1  0.57263000  0.26320000  0.93350000  1
  H  H131  1  0.57417000  0.04810000  0.31070000  1
  H  H132  1  0.57847000  0.94710000  0.77060000  1
  H  H133  1  0.58167000  0.68480000  0.74810000  1
  H  H134  1  0.58953000  0.47010000  0.05130000  1
  H  H135  1  0.59213000  0.36550000  0.00710000  1
  H  H136  1  0.59287000  0.08250000  0.38210000  1
  H  H137  1  0.59447000  0.18230000  0.67130000  1
  H  H138  1  0.59987000  0.54960000  0.68540000  1
  H  H139  1  0.60223000  0.56960000  0.45280000  1
  H  H140  1  0.62100000  0.31180000  0.50150000  1
  H  H141  1  0.62197000  0.14680000  0.33430000  1
  H  H142  1  0.62337000  0.95800000  0.29770000  1
  H  H143  1  0.62757000  0.87600000  0.32100000  1
  H  H144  1  0.62957000  0.61700000  0.58770000  1
  H  H145  1  0.64113000  0.89230000  0.50270000  1
  H  H146  1  0.64137000  0.97800000  0.74280000  1
  H  H147  1  0.64167000  0.89070000  0.64960000  1
  H  H148  1  0.65437000  0.17300000  0.24940000  1
  H  H149  1  0.65697000  0.49090000  0.64080000  1
  H  H150  1  0.67637000  0.85010000  0.35920000  1
  H  H151  1  0.67897000  0.92360000  0.75060000  1
  H  H152  1  0.69167000  0.24110000  0.35040000  1
  H  H153  1  0.69197000  0.23520000  0.25720000  1
  H  H154  1  0.69220000  0.38960000  0.49730000  1
  H  H155  1  0.70377000  0.02930000  0.41230000  1
  H  H156  1  0.70577000  0.55500000  0.67900000  1
  H  H157  1  0.70997000  0.66030000  0.70230000  1
  H  H158  1  0.71137000  0.81250000  0.66570000  1
  H  H159  1  0.71233000  0.81030000  0.49850000  1
  H  H160  1  0.73110000  0.11680000  0.54720000  1
  H  H161  1  0.73347000  0.86420000  0.31460000  1
  H  H162  1  0.73887000  0.51100000  0.32870000  1
  H  H163  1  0.74047000  0.70040000  0.61790000  1
  H  H164  1  0.74120000  0.35840000  0.99290000  1
  H  H165  1  0.74380000  0.41880000  0.94870000  1
  H  H166  1  0.75167000  0.93670000  0.25190000  1
  H  H167  1  0.75487000  0.17650000  0.22940000  1
  H  H168  1  0.75917000  0.73740000  0.68930000  1
  H  H169  1  0.76070000  0.32970000  0.06650000  1
  H  H170  1  0.76617000  0.62610000  0.64050000  1
  H  H171  1  0.77133000  0.73530000  0.49690000  1
  H  H172  1  0.77450000  0.32090000  0.15310000  1
  H  H173  1  0.78457000  0.98400000  0.46930000  1
  H  H174  1  0.78727000  0.91170000  0.43710000  1
  H  H175  1  0.79217000  0.41110000  0.42400000  1
  H  H176  1  0.79430000  0.35650000  0.90570000  1
  H  H177  1  0.79490000  0.30980000  0.23190000  1
  H  H178  1  0.79810000  0.41820000  0.03430000  1
  H  H179  1  0.80180000  0.18610000  0.52870000  1
  H  H180  1  0.80357000  0.51480000  0.24880000  1
  H  H181  1  0.80557000  0.90130000  0.27890000  1
  H  H182  1  0.80840000  0.25950000  0.94350000  1
  H  H183  1  0.81007000  0.29060000  0.33210000  1
  H  H184  1  0.82690000  0.37880000  0.26930000  1
  H  H185  1  0.83033000  0.47380000  0.64400000  1
  H  H186  1  0.83633000  0.64400000  0.47380000  1
  H  H187  1  0.83977000  0.26930000  0.37880000  1
  H  H188  1  0.85660000  0.33210000  0.29060000  1
  H  H189  1  0.85827000  0.94350000  0.25950000  1
  H  H190  1  0.86110000  0.27890000  0.90130000  1
  H  H191  1  0.86310000  0.24880000  0.51480000  1
  H  H192  1  0.86487000  0.52870000  0.18610000  1
  H  H193  1  0.86857000  0.03430000  0.41820000  1
  H  H194  1  0.87177000  0.23190000  0.30980000  1
  H  H195  1  0.87237000  0.90570000  0.35650000  1
  H  H196  1  0.87450000  0.42400000  0.41110000  1
  H  H197  1  0.87940000  0.43710000  0.91170000  1
  H  H198  1  0.88210000  0.46930000  0.98400000  1
  H  H199  1  0.89217000  0.15310000  0.32090000  1
  H  H200  1  0.89533000  0.49690000  0.73530000  1
  H  H201  1  0.90050000  0.64050000  0.62610000  1
  H  H202  1  0.90597000  0.06650000  0.32970000  1
  H  H203  1  0.90750000  0.68930000  0.73740000  1
  H  H204  1  0.91180000  0.22940000  0.17650000  1
  H  H205  1  0.91500000  0.25190000  0.93670000  1
  H  H206  1  0.92287000  0.94870000  0.41880000  1
  H  H207  1  0.92547000  0.99290000  0.35840000  1
  H  H208  1  0.92620000  0.61790000  0.70040000  1
  H  H209  1  0.92780000  0.32870000  0.51100000  1
  H  H210  1  0.93320000  0.31460000  0.86420000  1
  H  H211  1  0.93557000  0.54720000  0.11680000  1
  H  H212  1  0.95433000  0.49850000  0.81030000  1
  H  H213  1  0.95530000  0.66570000  0.81250000  1
  H  H214  1  0.95670000  0.70230000  0.66030000  1
  H  H215  1  0.96090000  0.67900000  0.55500000  1
  H  H216  1  0.96290000  0.41230000  0.02930000  1
  H  H217  1  0.97447000  0.49730000  0.38960000  1
  H  H218  1  0.97470000  0.25720000  0.23520000  1
  H  H219  1  0.97500000  0.35040000  0.24110000  1
  H  H220  1  0.98770000  0.75060000  0.92360000  1
  H  H221  1  0.99030000  0.35920000  0.85010000  1
  C  C222  1  0.01290000  0.66666667  0.79716667  1
  C  C223  1  0.01590000  0.65740000  0.53460000  1
  C  C224  1  0.01793000  0.49610000  0.81040000  1
  C  C225  1  0.02110000  0.66140000  0.74050000  1
  C  C226  1  0.02293000  0.48380000  0.70640000  1
  C  C227  1  0.02853000  0.46040000  0.60340000  1
  C  C228  1  0.03210000  0.60530000  0.54760000  1
  C  C229  1  0.03830000  0.62640000  0.61600000  1
  C  C230  1  0.04080000  0.74110000  0.93990000  1
  C  C231  1  0.04550000  0.34030000  0.99130000  1
  C  C232  1  0.04690000  0.44050000  0.96230000  1
  C  C233  1  0.05080000  0.34230000  0.05120000  1
  C  C234  1  0.06073000  0.49830000  0.85940000  1
  C  C235  1  0.06563000  0.49050000  0.76160000  1
  C  C236  1  0.06747000  0.51380000  0.21500000  1
  C  C237  1  0.07153000  0.47180000  0.65610000  1
  C  C238  1  0.07320000  0.67890000  0.89540000  1
  C  C239  1  0.08910000  0.67330000  0.83140000  1
  C  C240  1  0.10550000  0.66270000  0.71800000  1
  C  C241  1  0.10617000  0.52700000  0.17330000  1
  C  C242  1  0.11860000  0.57040000  0.51660000  1
  C  C243  1  0.12420000  0.65840000  0.65160000  1
  C  C244  1  0.13083000  0.00490000  0.38490000  1
  C  C245  1  0.13093000  0.05500000  0.44950000  1
  C  C246  1  0.13570000  0.67470000  0.18420000  1
  C  C247  1  0.13600000  0.72290000  0.66160000  1
  C  C248  1  0.15163000  0.91720000  0.24780000  1
  C  C249  1  0.15600000  0.66320000  0.91870000  1
  C  C250  1  0.15953000  0.48830000  0.76580000  1
  C  C251  1  0.15983000  0.86580000  0.19110000  1
  C  C252  1  0.17350000  0.67470000  0.80890000  1
  C  C253  1  0.17380000  0.72250000  0.23420000  1
  C  C254  1  0.17733000  0.74450000  0.08130000  1
  C  C255  1  0.18170000  0.66940000  0.75220000  1
  C  C256  1  0.19733000  0.06130000  0.33840000  1
  C  C257  1  0.19763000  0.49050000  0.81580000  1
  C  C258  1  0.20240000  0.60550000  0.55050000  1
  C  C259  1  0.20250000  0.62000000  0.61510000  1
  C  C260  1  0.20913000  0.00680000  0.34840000  1
  C  C261  1  0.21473000  0.05380000  0.48340000  1
  C  C262  1  0.22717000  0.35370000  0.82670000  1
  C  C263  1  0.22783000  0.94470000  0.28200000  1
  C  C264  1  0.24423000  0.84190000  0.16860000  1
  C  C265  1  0.26013000  0.78350000  0.10460000  1
  C  C266  1  0.26180000  0.81570000  0.34390000  1
  C  C267  1  0.26587000  0.29880000  0.78500000  1
  C  C268  1  0.26770000  0.72890000  0.23840000  1
  C  C269  1  0.27260000  0.63890000  0.14060000  1
  C  C270  1  0.28253000  0.29110000  0.94880000  1
  C  C271  1  0.28643000  0.47820000  0.03770000  1
  C  C272  1  0.28783000  0.34900000  0.00870000  1
  C  C273  1  0.29253000  0.80120000  0.06010000  1
  C  C274  1  0.29503000  0.01040000  0.38400000  1
  C  C275  1  0.30123000  0.05770000  0.45240000  1
  C  C276  1  0.30480000  0.85700000  0.39660000  1
  C  C277  1  0.31040000  0.77740000  0.29360000  1
  C  C278  1  0.31223000  0.92090000  0.25950000  1
  C  C279  1  0.31540000  0.68570000  0.18960000  1
  C  C280  1  0.31743000  0.12280000  0.46540000  1
  C  C281  1  0.32043000  0.86950000  0.20283333  1
  C  C282  1  0.34623000  0.20280000  0.86946667  1
  C  C283  1  0.34923000  0.46540000  0.12280000  1
  C  C284  1  0.35127000  0.18960000  0.68570000  1
  C  C285  1  0.35443000  0.25950000  0.92090000  1
  C  C286  1  0.35627000  0.29360000  0.77740000  1
  C  C287  1  0.36187000  0.39660000  0.85700000  1
  C  C288  1  0.36543000  0.45240000  0.05770000  1
  C  C289  1  0.37163000  0.38400000  0.01040000  1
  C  C290  1  0.37413000  0.06010000  0.80120000  1
  C  C291  1  0.37883000  0.00870000  0.34900000  1
  C  C292  1  0.38023000  0.03770000  0.47820000  1
  C  C293  1  0.38413000  0.94880000  0.29110000  1
  C  C294  1  0.39407000  0.14060000  0.63890000  1
  C  C295  1  0.39897000  0.23840000  0.72890000  1
  C  C296  1  0.40080000  0.78500000  0.29880000  1
  C  C297  1  0.40487000  0.34390000  0.81570000  1
  C  C298  1  0.40653000  0.10460000  0.78350000  1
  C  C299  1  0.42243000  0.16860000  0.84190000  1
  C  C300  1  0.43883000  0.28200000  0.94470000  1
  C  C301  1  0.43950000  0.82670000  0.35370000  1
  C  C302  1  0.45193000  0.48340000  0.05380000  1
  C  C303  1  0.45753000  0.34840000  0.00680000  1
  C  C304  1  0.46417000  0.61510000  0.62000000  1
  C  C305  1  0.46427000  0.55050000  0.60550000  1
  C  C306  1  0.46903000  0.81580000  0.49050000  1
  C  C307  1  0.46933000  0.33840000  0.06130000  1
  C  C308  1  0.48497000  0.75220000  0.66940000  1
  C  C309  1  0.48933000  0.08130000  0.74450000  1
  C  C310  1  0.49287000  0.23420000  0.72250000  1
  C  C311  1  0.49317000  0.80890000  0.67470000  1
  C  C312  1  0.50683000  0.19110000  0.86580000  1
  C  C313  1  0.50713000  0.76580000  0.48830000  1
  C  C314  1  0.51067000  0.91870000  0.66320000  1
  C  C315  1  0.51503000  0.24780000  0.91720000  1
  C  C316  1  0.53067000  0.66160000  0.72290000  1
  C  C317  1  0.53097000  0.18420000  0.67470000  1
  C  C318  1  0.53573000  0.44950000  0.05500000  1
  C  C319  1  0.53583000  0.38490000  0.00490000  1
  C  C320  1  0.54247000  0.65160000  0.65840000  1
  C  C321  1  0.54807000  0.51660000  0.57040000  1
  C  C322  1  0.56050000  0.17330000  0.52700000  1
  C  C323  1  0.56117000  0.71800000  0.66270000  1
  C  C324  1  0.57757000  0.83140000  0.67330000  1
  C  C325  1  0.59347000  0.89540000  0.67890000  1
  C  C326  1  0.59513000  0.65610000  0.47180000  1
  C  C327  1  0.59920000  0.21500000  0.51380000  1
  C  C328  1  0.60103000  0.76160000  0.49050000  1
  C  C329  1  0.60593000  0.85940000  0.49830000  1
  C  C330  1  0.61587000  0.05120000  0.34230000  1
  C  C331  1  0.61977000  0.96230000  0.44050000  1
  C  C332  1  0.62117000  0.99130000  0.34030000  1
  C  C333  1  0.62587000  0.93990000  0.74110000  1
  C  C334  1  0.62837000  0.61600000  0.62640000  1
  C  C335  1  0.63457000  0.54760000  0.60530000  1
  C  C336  1  0.63813000  0.60340000  0.46040000  1
  C  C337  1  0.64373000  0.70640000  0.48380000  1
  C  C338  1  0.64557000  0.74050000  0.66140000  1
  C  C339  1  0.64873000  0.81040000  0.49610000  1
  C  C340  1  0.65077000  0.53460000  0.65740000  1
  C  C341  1  0.65377000  0.79720000  0.66670000  1
  C  C342  1  0.67957000  0.13050000  0.33330000  1
  C  C343  1  0.68257000  0.87720000  0.34260000  1
  C  C344  1  0.68460000  0.31430000  0.50390000  1
  C  C345  1  0.68777000  0.07910000  0.33860000  1
  C  C346  1  0.68960000  0.22260000  0.51620000  1
  C  C347  1  0.69520000  0.14300000  0.53960000  1
  C  C348  1  0.69877000  0.94230000  0.39470000  1
  C  C349  1  0.70497000  0.98960000  0.37360000  1
  C  C350  1  0.70747000  0.19880000  0.25890000  1
  C  C351  1  0.71217000  0.65100000  0.65970000  1
  C  C352  1  0.71357000  0.52180000  0.55950000  1
  C  C353  1  0.71747000  0.70890000  0.65770000  1
  C  C354  1  0.72740000  0.36110000  0.50170000  1
  C  C355  1  0.73230000  0.27110000  0.50950000  1
  C  C356  1  0.73413000  0.70120000  0.48620000  1
  C  C357  1  0.73820000  0.18430000  0.52820000  1
  C  C358  1  0.73987000  0.21650000  0.32110000  1
  C  C359  1  0.75577000  0.15810000  0.32670000  1
  C  C360  1  0.77217000  0.05530000  0.33730000  1
  C  C361  1  0.77283000  0.64630000  0.47300000  1
  C  C362  1  0.78527000  0.94620000  0.42960000  1
  C  C363  1  0.79087000  0.99320000  0.34160000  1
  C  C364  1  0.79750000  0.38000000  0.99510000  1
  C  C365  1  0.79760000  0.39450000  0.94500000  1
  C  C366  1  0.80237000  0.50950000  0.32530000  1
  C  C367  1  0.80267000  0.93870000  0.27710000  1
  C  C368  1  0.81830000  0.33060000  0.08280000  1
  C  C369  1  0.82267000  0.25550000  0.33680000  1
  C  C370  1  0.82620000  0.27750000  0.51170000  1
  C  C371  1  0.82650000  0.32530000  0.13420000  1
  C  C372  1  0.84017000  0.13420000  0.32530000  1
  C  C373  1  0.84047000  0.51170000  0.27750000  1
  C  C374  1  0.84400000  0.33680000  0.25550000  1
  C  C375  1  0.84837000  0.08280000  0.33060000  1
  C  C376  1  0.86400000  0.27710000  0.93870000  1
  C  C377  1  0.86430000  0.32530000  0.50950000  1
  C  C378  1  0.86907000  0.94500000  0.39450000  1
  C  C379  1  0.86917000  0.99510000  0.38000000  1
  C  C380  1  0.87580000  0.34160000  0.99320000  1
  C  C381  1  0.88140000  0.42960000  0.94620000  1
  C  C382  1  0.89383000  0.47300000  0.64630000  1
  C  C383  1  0.89450000  0.33730000  0.05530000  1
  C  C384  1  0.91090000  0.32670000  0.15810000  1
  C  C385  1  0.92680000  0.32110000  0.21650000  1
  C  C386  1  0.92847000  0.52820000  0.18430000  1
  C  C387  1  0.93253000  0.48620000  0.70120000  1
  C  C388  1  0.93437000  0.50950000  0.27110000  1
  C  C389  1  0.93927000  0.50170000  0.36110000  1
  C  C390  1  0.94920000  0.65770000  0.70890000  1
  C  C391  1  0.95310000  0.55950000  0.52180000  1
  C  C392  1  0.95450000  0.65970000  0.65100000  1
  C  C393  1  0.95920000  0.25890000  0.19880000  1
  C  C394  1  0.96170000  0.37360000  0.98960000  1
  C  C395  1  0.96790000  0.39470000  0.94230000  1
  C  C396  1  0.97147000  0.53960000  0.14300000  1
  C  C397  1  0.97707000  0.51620000  0.22260000  1
  C  C398  1  0.97890000  0.33860000  0.07910000  1
  C  C399  1  0.98207000  0.50390000  0.31430000  1
  C  C400  1  0.98410000  0.34260000  0.87720000  1
  C  C401  1  0.98710000  0.33333333  0.13053333  1
  N  N402  1  0.05937000  0.54070000  0.13800000  1
  N  N403  1  0.14943000  0.49460000  0.86217000  1
  N  N404  1  0.18390000  0.63243000  0.13783000  1
  N  N405  1  0.27397000  0.40270000  0.86200000  1
  N  N406  1  0.39270000  0.86200000  0.40270000  1
  N  N407  1  0.48277000  0.13783000  0.63243000  1
  N  N408  1  0.51723000  0.86217000  0.49460000  1
  N  N409  1  0.60730000  0.13800000  0.54070000  1
  N  N410  1  0.72603000  0.59730000  0.45930000  1
  N  N411  1  0.81610000  0.36757000  0.50540000  1
  N  N412  1  0.85057000  0.50540000  0.36757000  1
  N  N413  1  0.94063000  0.45930000  0.59730000  1
  O  O414  1  0.04010000  0.48514000  0.01479000  1
  O  O415  1  0.10950000  0.43195000  0.92581000  1
  O  O416  1  0.16667000  0.56299000  0.00000000  1
  O  O417  1  0.22383000  0.50614000  0.07419000  1
  O  O418  1  0.29323000  0.47035000  0.98521000  1
  O  O419  1  0.37343000  0.98521000  0.47035000  1
  O  O420  1  0.44283000  0.07419000  0.50614000  1
  O  O421  1  0.50000000  0.00000000  0.56299000  1
  O  O422  1  0.55717000  0.92581000  0.43195000  1
  O  O423  1  0.62657000  0.01479000  0.48514000  1
  O  O424  1  0.70677000  0.52965000  0.51486000  1
  O  O425  1  0.77617000  0.49386000  0.56805000  1
  O  O426  1  0.83333000  0.43701000  0.43701000  1
  O  O427  1  0.89050000  0.56805000  0.49386000  1
  O  O428  1  0.95990000  0.51486000  0.52965000  1
