# generated using pymatgen
data_Co10H57C50N4O19
_symmetry_space_group_name_H-M   'P 1'
_cell_length_a   26.45290000
_cell_length_b   26.45290000
_cell_length_c   26.45290000
_cell_angle_alpha   90.00000000
_cell_angle_beta   90.00000000
_cell_angle_gamma   90.00000000
_symmetry_Int_Tables_number   1
_chemical_formula_structural   Co10H57C50N4O19
_chemical_formula_sum   'Co80 H456 C400 N32 O152'
_cell_volume   18510.57333411
_cell_formula_units_Z   8
loop_
 _symmetry_equiv_pos_site_id
 _symmetry_equiv_pos_as_xyz
  1  'x, y, z'
loop_
 _atom_site_type_symbol
 _atom_site_label
 _atom_site_symmetry_multiplicity
 _atom_site_fract_x
 _atom_site_fract_y
 _atom_site_fract_z
 _atom_site_occupancy
  Co  Co0  1  0.11777000  0.11777000  0.11777000  1
  Co  Co1  1  0.11777000  0.38223000  0.61777000  1
  Co  Co2  1  0.13200000  0.22476000  0.16149000  1
  Co  Co3  1  0.13200000  0.27524000  0.66149000  1
  Co  Co4  1  0.14369000  0.16836000  0.71052000  1
  Co  Co5  1  0.14369000  0.33164000  0.21052000  1
  Co  Co6  1  0.16149000  0.13200000  0.22476000  1
  Co  Co7  1  0.16149000  0.36800000  0.72476000  1
  Co  Co8  1  0.16836000  0.71052000  0.14369000  1
  Co  Co9  1  0.16836000  0.78948000  0.64369000  1
  Co  Co10  1  0.17535000  0.23982000  0.26793000  1
  Co  Co11  1  0.17535000  0.26018000  0.76793000  1
  Co  Co12  1  0.21052000  0.14369000  0.33164000  1
  Co  Co13  1  0.21052000  0.35631000  0.83164000  1
  Co  Co14  1  0.22476000  0.16149000  0.13200000  1
  Co  Co15  1  0.22476000  0.33851000  0.63200000  1
  Co  Co16  1  0.23207000  0.67535000  0.23982000  1
  Co  Co17  1  0.23207000  0.82465000  0.73982000  1
  Co  Co18  1  0.23982000  0.23207000  0.67535000  1
  Co  Co19  1  0.23982000  0.26793000  0.17535000  1
  Co  Co20  1  0.26018000  0.73207000  0.67535000  1
  Co  Co21  1  0.26018000  0.76793000  0.17535000  1
  Co  Co22  1  0.26793000  0.17535000  0.23982000  1
  Co  Co23  1  0.26793000  0.32465000  0.73982000  1
  Co  Co24  1  0.27524000  0.66149000  0.13200000  1
  Co  Co25  1  0.27524000  0.83851000  0.63200000  1
  Co  Co26  1  0.28948000  0.64369000  0.33164000  1
  Co  Co27  1  0.28948000  0.85631000  0.83164000  1
  Co  Co28  1  0.32465000  0.73982000  0.26793000  1
  Co  Co29  1  0.32465000  0.76018000  0.76793000  1
  Co  Co30  1  0.33164000  0.21052000  0.14369000  1
  Co  Co31  1  0.33164000  0.28948000  0.64369000  1
  Co  Co32  1  0.33851000  0.63200000  0.22476000  1
  Co  Co33  1  0.33851000  0.86800000  0.72476000  1
  Co  Co34  1  0.35631000  0.66836000  0.71052000  1
  Co  Co35  1  0.35631000  0.83164000  0.21052000  1
  Co  Co36  1  0.36800000  0.72476000  0.16149000  1
  Co  Co37  1  0.36800000  0.77524000  0.66149000  1
  Co  Co38  1  0.38223000  0.61777000  0.11777000  1
  Co  Co39  1  0.38223000  0.88223000  0.61777000  1
  Co  Co40  1  0.61777000  0.11777000  0.38223000  1
  Co  Co41  1  0.61777000  0.38223000  0.88223000  1
  Co  Co42  1  0.63200000  0.22476000  0.33851000  1
  Co  Co43  1  0.63200000  0.27524000  0.83851000  1
  Co  Co44  1  0.64369000  0.16836000  0.78948000  1
  Co  Co45  1  0.64369000  0.33164000  0.28948000  1
  Co  Co46  1  0.66149000  0.13200000  0.27524000  1
  Co  Co47  1  0.66149000  0.36800000  0.77524000  1
  Co  Co48  1  0.66836000  0.71052000  0.35631000  1
  Co  Co49  1  0.66836000  0.78948000  0.85631000  1
  Co  Co50  1  0.67535000  0.23982000  0.23207000  1
  Co  Co51  1  0.67535000  0.26018000  0.73207000  1
  Co  Co52  1  0.71052000  0.14369000  0.16836000  1
  Co  Co53  1  0.71052000  0.35631000  0.66836000  1
  Co  Co54  1  0.72476000  0.16149000  0.36800000  1
  Co  Co55  1  0.72476000  0.33851000  0.86800000  1
  Co  Co56  1  0.73207000  0.67535000  0.26018000  1
  Co  Co57  1  0.73207000  0.82465000  0.76018000  1
  Co  Co58  1  0.73982000  0.23207000  0.82465000  1
  Co  Co59  1  0.73982000  0.26793000  0.32465000  1
  Co  Co60  1  0.76018000  0.73207000  0.82465000  1
  Co  Co61  1  0.76018000  0.76793000  0.32465000  1
  Co  Co62  1  0.76793000  0.17535000  0.26018000  1
  Co  Co63  1  0.76793000  0.32465000  0.76018000  1
  Co  Co64  1  0.77524000  0.66149000  0.36800000  1
  Co  Co65  1  0.77524000  0.83851000  0.86800000  1
  Co  Co66  1  0.78948000  0.64369000  0.16836000  1
  Co  Co67  1  0.78948000  0.85631000  0.66836000  1
  Co  Co68  1  0.82465000  0.73982000  0.23207000  1
  Co  Co69  1  0.82465000  0.76018000  0.73207000  1
  Co  Co70  1  0.83164000  0.21052000  0.35631000  1
  Co  Co71  1  0.83164000  0.28948000  0.85631000  1
  Co  Co72  1  0.83851000  0.63200000  0.27524000  1
  Co  Co73  1  0.83851000  0.86800000  0.77524000  1
  Co  Co74  1  0.85631000  0.66836000  0.78948000  1
  Co  Co75  1  0.85631000  0.83164000  0.28948000  1
  Co  Co76  1  0.86800000  0.72476000  0.33851000  1
  Co  Co77  1  0.86800000  0.77524000  0.83851000  1
  Co  Co78  1  0.88223000  0.61777000  0.38223000  1
  Co  Co79  1  0.88223000  0.88223000  0.88223000  1
  H  H80  1  0.01880000  0.23690000  0.34550000  1
  H  H81  1  0.01880000  0.26310000  0.84550000  1
  H  H82  1  0.02890000  0.17190000  0.19100000  1
  H  H83  1  0.02890000  0.32810000  0.69100000  1
  H  H84  1  0.03360000  0.64730000  0.26330000  1
  H  H85  1  0.03360000  0.85270000  0.76330000  1
  H  H86  1  0.03960000  0.23960000  0.72330000  1
  H  H87  1  0.03960000  0.26040000  0.22330000  1
  H  H88  1  0.04630000  0.12550000  0.22330000  1
  H  H89  1  0.04630000  0.37450000  0.72330000  1
  H  H90  1  0.05720000  0.63900000  0.84290000  1
  H  H91  1  0.05720000  0.86100000  0.34290000  1
  H  H92  1  0.06040000  0.73890000  0.12090000  1
  H  H93  1  0.06040000  0.76110000  0.62090000  1
  H  H94  1  0.06160000  0.22940000  0.77730000  1
  H  H95  1  0.06160000  0.27060000  0.27730000  1
  H  H96  1  0.08110000  0.67910000  0.90160000  1
  H  H97  1  0.08110000  0.82090000  0.40160000  1
  H  H98  1  0.08210000  0.13830000  0.31170000  1
  H  H99  1  0.08210000  0.36170000  0.81170000  1
  H  H100  1  0.08860000  0.19290000  0.33360000  1
  H  H101  1  0.08860000  0.30710000  0.83360000  1
  H  H102  1  0.09840000  0.58110000  0.82090000  1
  H  H103  1  0.09840000  0.91890000  0.32090000  1
  H  H104  1  0.10060000  0.61620000  0.34110000  1
  H  H105  1  0.10060000  0.88380000  0.84110000  1
  H  H106  1  0.10780000  0.63050000  0.61860000  1
  H  H107  1  0.10780000  0.68940000  0.79180000  1
  H  H108  1  0.10780000  0.81060000  0.29180000  1
  H  H109  1  0.10780000  0.86950000  0.11860000  1
  H  H110  1  0.11170000  0.65320000  0.22640000  1
  H  H111  1  0.11170000  0.84680000  0.72640000  1
  H  H112  1  0.11620000  0.15890000  0.89940000  1
  H  H113  1  0.11620000  0.34110000  0.39940000  1
  H  H114  1  0.11710000  0.66860000  0.36330000  1
  H  H115  1  0.11710000  0.83140000  0.86330000  1
  H  H116  1  0.11860000  0.10780000  0.86950000  1
  H  H117  1  0.11860000  0.39220000  0.36950000  1
  H  H118  1  0.12090000  0.06040000  0.73890000  1
  H  H119  1  0.12090000  0.43960000  0.23890000  1
  H  H120  1  0.12550000  0.22330000  0.04630000  1
  H  H121  1  0.12550000  0.27670000  0.54630000  1
  H  H122  1  0.12860000  0.73250000  0.85030000  1
  H  H123  1  0.12860000  0.76750000  0.35030000  1
  H  H124  1  0.13050000  0.61860000  0.39220000  1
  H  H125  1  0.13050000  0.88140000  0.89220000  1
  H  H126  1  0.13670000  0.61710000  0.66860000  1
  H  H127  1  0.13670000  0.88290000  0.16860000  1
  H  H128  1  0.13830000  0.18830000  0.58210000  1
  H  H129  1  0.13830000  0.31170000  0.08210000  1
  H  H130  1  0.13900000  0.65710000  0.94280000  1
  H  H131  1  0.13900000  0.84290000  0.44280000  1
  H  H132  1  0.14680000  0.74940000  0.76500000  1
  H  H133  1  0.14680000  0.75060000  0.26500000  1
  H  H134  1  0.14730000  0.23670000  0.96640000  1
  H  H135  1  0.14730000  0.26330000  0.46640000  1
  H  H136  1  0.14970000  0.62860000  0.76750000  1
  H  H137  1  0.14970000  0.87140000  0.26750000  1
  H  H138  1  0.15320000  0.22640000  0.38830000  1
  H  H139  1  0.15320000  0.27360000  0.88830000  1
  H  H140  1  0.15450000  0.51880000  0.23690000  1
  H  H141  1  0.15450000  0.98120000  0.73690000  1
  H  H142  1  0.15710000  0.55720000  0.86100000  1
  H  H143  1  0.15710000  0.94280000  0.36100000  1
  H  H144  1  0.15830000  0.70220000  0.73130000  1
  H  H145  1  0.15830000  0.79780000  0.23130000  1
  H  H146  1  0.15890000  0.60060000  0.61620000  1
  H  H147  1  0.15890000  0.89940000  0.11620000  1
  H  H148  1  0.16640000  0.58860000  0.19290000  1
  H  H149  1  0.16640000  0.91140000  0.69290000  1
  H  H150  1  0.16860000  0.13670000  0.88290000  1
  H  H151  1  0.16860000  0.36330000  0.38290000  1
  H  H152  1  0.17190000  0.19100000  0.02890000  1
  H  H153  1  0.17190000  0.30900000  0.52890000  1
  H  H154  1  0.17910000  0.59840000  0.91890000  1
  H  H155  1  0.17910000  0.90160000  0.41890000  1
  H  H156  1  0.18830000  0.58210000  0.13830000  1
  H  H157  1  0.18830000  0.91790000  0.63830000  1
  H  H158  1  0.18940000  0.70820000  0.89220000  1
  H  H159  1  0.18940000  0.79180000  0.39220000  1
  H  H160  1  0.19100000  0.02890000  0.17190000  1
  H  H161  1  0.19100000  0.47110000  0.67190000  1
  H  H162  1  0.19290000  0.16640000  0.58860000  1
  H  H163  1  0.19290000  0.33360000  0.08860000  1
  H  H164  1  0.20220000  0.73130000  0.34170000  1
  H  H165  1  0.20220000  0.76870000  0.84170000  1
  H  H166  1  0.20820000  0.60780000  0.81060000  1
  H  H167  1  0.20820000  0.89220000  0.31060000  1
  H  H168  1  0.22270000  0.56160000  0.27060000  1
  H  H169  1  0.22270000  0.93840000  0.77060000  1
  H  H170  1  0.22330000  0.03960000  0.26040000  1
  H  H171  1  0.22330000  0.04630000  0.12550000  1
  H  H172  1  0.22330000  0.45370000  0.62550000  1
  H  H173  1  0.22330000  0.46040000  0.76040000  1
  H  H174  1  0.22640000  0.11170000  0.65320000  1
  H  H175  1  0.22640000  0.38830000  0.15320000  1
  H  H176  1  0.22940000  0.72270000  0.56160000  1
  H  H177  1  0.22940000  0.77730000  0.06160000  1
  H  H178  1  0.23130000  0.15830000  0.79780000  1
  H  H179  1  0.23130000  0.34170000  0.29780000  1
  H  H180  1  0.23250000  0.64970000  0.87140000  1
  H  H181  1  0.23250000  0.85030000  0.37140000  1
  H  H182  1  0.23500000  0.64680000  0.75060000  1
  H  H183  1  0.23500000  0.85320000  0.25060000  1
  H  H184  1  0.23670000  0.53360000  0.64730000  1
  H  H185  1  0.23670000  0.96640000  0.14730000  1
  H  H186  1  0.23690000  0.15450000  0.51880000  1
  H  H187  1  0.23690000  0.34550000  0.01880000  1
  H  H188  1  0.23890000  0.12090000  0.43960000  1
  H  H189  1  0.23890000  0.37910000  0.93960000  1
  H  H190  1  0.23960000  0.72330000  0.03960000  1
  H  H191  1  0.23960000  0.77670000  0.53960000  1
  H  H192  1  0.24940000  0.73500000  0.85320000  1
  H  H193  1  0.24940000  0.76500000  0.35320000  1
  H  H194  1  0.25060000  0.23500000  0.85320000  1
  H  H195  1  0.25060000  0.26500000  0.35320000  1
  H  H196  1  0.26040000  0.22330000  0.03960000  1
  H  H197  1  0.26040000  0.27670000  0.53960000  1
  H  H198  1  0.26110000  0.62090000  0.43960000  1
  H  H199  1  0.26110000  0.87910000  0.93960000  1
  H  H200  1  0.26310000  0.65450000  0.51880000  1
  H  H201  1  0.26310000  0.84550000  0.01880000  1
  H  H202  1  0.26330000  0.03360000  0.64730000  1
  H  H203  1  0.26330000  0.46640000  0.14730000  1
  H  H204  1  0.26500000  0.14680000  0.75060000  1
  H  H205  1  0.26500000  0.35320000  0.25060000  1
  H  H206  1  0.26750000  0.14970000  0.87140000  1
  H  H207  1  0.26750000  0.35030000  0.37140000  1
  H  H208  1  0.26870000  0.65830000  0.79780000  1
  H  H209  1  0.26870000  0.84170000  0.29780000  1
  H  H210  1  0.27060000  0.22270000  0.56160000  1
  H  H211  1  0.27060000  0.27730000  0.06160000  1
  H  H212  1  0.27360000  0.61170000  0.65320000  1
  H  H213  1  0.27360000  0.88830000  0.15320000  1
  H  H214  1  0.27670000  0.53960000  0.26040000  1
  H  H215  1  0.27670000  0.54630000  0.12550000  1
  H  H216  1  0.27670000  0.95370000  0.62550000  1
  H  H217  1  0.27670000  0.96040000  0.76040000  1
  H  H218  1  0.27730000  0.06160000  0.27060000  1
  H  H219  1  0.27730000  0.43840000  0.77060000  1
  H  H220  1  0.29180000  0.10780000  0.81060000  1
  H  H221  1  0.29180000  0.39220000  0.31060000  1
  H  H222  1  0.29780000  0.23130000  0.34170000  1
  H  H223  1  0.29780000  0.26870000  0.84170000  1
  H  H224  1  0.30710000  0.66640000  0.58860000  1
  H  H225  1  0.30710000  0.83360000  0.08860000  1
  H  H226  1  0.30900000  0.52890000  0.17190000  1
  H  H227  1  0.30900000  0.97110000  0.67190000  1
  H  H228  1  0.31060000  0.20820000  0.89220000  1
  H  H229  1  0.31060000  0.29180000  0.39220000  1
  H  H230  1  0.31170000  0.08210000  0.13830000  1
  H  H231  1  0.31170000  0.41790000  0.63830000  1
  H  H232  1  0.32090000  0.09840000  0.91890000  1
  H  H233  1  0.32090000  0.40160000  0.41890000  1
  H  H234  1  0.32810000  0.69100000  0.02890000  1
  H  H235  1  0.32810000  0.80900000  0.52890000  1
  H  H236  1  0.33140000  0.63670000  0.88290000  1
  H  H237  1  0.33140000  0.86330000  0.38290000  1
  H  H238  1  0.33360000  0.08860000  0.19290000  1
  H  H239  1  0.33360000  0.41140000  0.69290000  1
  H  H240  1  0.34110000  0.10060000  0.61620000  1
  H  H241  1  0.34110000  0.39940000  0.11620000  1
  H  H242  1  0.34170000  0.20220000  0.73130000  1
  H  H243  1  0.34170000  0.29780000  0.23130000  1
  H  H244  1  0.34290000  0.05720000  0.86100000  1
  H  H245  1  0.34290000  0.44280000  0.36100000  1
  H  H246  1  0.34550000  0.01880000  0.23690000  1
  H  H247  1  0.34550000  0.48120000  0.73690000  1
  H  H248  1  0.34680000  0.72640000  0.38830000  1
  H  H249  1  0.34680000  0.77360000  0.88830000  1
  H  H250  1  0.35030000  0.12860000  0.76750000  1
  H  H251  1  0.35030000  0.37140000  0.26750000  1
  H  H252  1  0.35270000  0.73670000  0.96640000  1
  H  H253  1  0.35270000  0.76330000  0.46640000  1
  H  H254  1  0.35320000  0.24940000  0.76500000  1
  H  H255  1  0.35320000  0.25060000  0.26500000  1
  H  H256  1  0.36100000  0.15710000  0.94280000  1
  H  H257  1  0.36100000  0.34290000  0.44280000  1
  H  H258  1  0.36170000  0.68830000  0.58210000  1
  H  H259  1  0.36170000  0.81170000  0.08210000  1
  H  H260  1  0.36330000  0.11710000  0.66860000  1
  H  H261  1  0.36330000  0.38290000  0.16860000  1
  H  H262  1  0.36950000  0.11860000  0.39220000  1
  H  H263  1  0.36950000  0.38140000  0.89220000  1
  H  H264  1  0.37140000  0.23250000  0.85030000  1
  H  H265  1  0.37140000  0.26750000  0.35030000  1
  H  H266  1  0.37450000  0.72330000  0.04630000  1
  H  H267  1  0.37450000  0.77670000  0.54630000  1
  H  H268  1  0.37910000  0.56040000  0.73890000  1
  H  H269  1  0.37910000  0.93960000  0.23890000  1
  H  H270  1  0.38140000  0.60780000  0.86950000  1
  H  H271  1  0.38140000  0.89220000  0.36950000  1
  H  H272  1  0.38290000  0.16860000  0.36330000  1
  H  H273  1  0.38290000  0.33140000  0.86330000  1
  H  H274  1  0.38380000  0.65890000  0.89940000  1
  H  H275  1  0.38380000  0.84110000  0.39940000  1
  H  H276  1  0.38830000  0.15320000  0.22640000  1
  H  H277  1  0.38830000  0.34680000  0.72640000  1
  H  H278  1  0.39220000  0.13050000  0.61860000  1
  H  H279  1  0.39220000  0.18940000  0.79180000  1
  H  H280  1  0.39220000  0.31060000  0.29180000  1
  H  H281  1  0.39220000  0.36950000  0.11860000  1
  H  H282  1  0.39940000  0.11620000  0.34110000  1
  H  H283  1  0.39940000  0.38380000  0.84110000  1
  H  H284  1  0.40160000  0.08110000  0.82090000  1
  H  H285  1  0.40160000  0.41890000  0.32090000  1
  H  H286  1  0.41140000  0.69290000  0.33360000  1
  H  H287  1  0.41140000  0.80710000  0.83360000  1
  H  H288  1  0.41790000  0.63830000  0.31170000  1
  H  H289  1  0.41790000  0.86170000  0.81170000  1
  H  H290  1  0.41890000  0.17910000  0.90160000  1
  H  H291  1  0.41890000  0.32090000  0.40160000  1
  H  H292  1  0.43840000  0.72940000  0.77730000  1
  H  H293  1  0.43840000  0.77060000  0.27730000  1
  H  H294  1  0.43960000  0.23890000  0.12090000  1
  H  H295  1  0.43960000  0.26110000  0.62090000  1
  H  H296  1  0.44280000  0.13900000  0.84290000  1
  H  H297  1  0.44280000  0.36100000  0.34290000  1
  H  H298  1  0.45370000  0.62550000  0.22330000  1
  H  H299  1  0.45370000  0.87450000  0.72330000  1
  H  H300  1  0.46040000  0.73960000  0.72330000  1
  H  H301  1  0.46040000  0.76040000  0.22330000  1
  H  H302  1  0.46640000  0.14730000  0.26330000  1
  H  H303  1  0.46640000  0.35270000  0.76330000  1
  H  H304  1  0.47110000  0.67190000  0.19100000  1
  H  H305  1  0.47110000  0.82810000  0.69100000  1
  H  H306  1  0.48120000  0.73690000  0.34550000  1
  H  H307  1  0.48120000  0.76310000  0.84550000  1
  H  H308  1  0.51880000  0.23690000  0.15450000  1
  H  H309  1  0.51880000  0.26310000  0.65450000  1
  H  H310  1  0.52890000  0.17190000  0.30900000  1
  H  H311  1  0.52890000  0.32810000  0.80900000  1
  H  H312  1  0.53360000  0.64730000  0.23670000  1
  H  H313  1  0.53360000  0.85270000  0.73670000  1
  H  H314  1  0.53960000  0.23960000  0.77670000  1
  H  H315  1  0.53960000  0.26040000  0.27670000  1
  H  H316  1  0.54630000  0.12550000  0.27670000  1
  H  H317  1  0.54630000  0.37450000  0.77670000  1
  H  H318  1  0.55720000  0.63900000  0.65710000  1
  H  H319  1  0.55720000  0.86100000  0.15710000  1
  H  H320  1  0.56040000  0.73890000  0.37910000  1
  H  H321  1  0.56040000  0.76110000  0.87910000  1
  H  H322  1  0.56160000  0.22940000  0.72270000  1
  H  H323  1  0.56160000  0.27060000  0.22270000  1
  H  H324  1  0.58110000  0.67910000  0.59840000  1
  H  H325  1  0.58110000  0.82090000  0.09840000  1
  H  H326  1  0.58210000  0.13830000  0.18830000  1
  H  H327  1  0.58210000  0.36170000  0.68830000  1
  H  H328  1  0.58860000  0.19290000  0.16640000  1
  H  H329  1  0.58860000  0.30710000  0.66640000  1
  H  H330  1  0.59840000  0.58110000  0.67910000  1
  H  H331  1  0.59840000  0.91890000  0.17910000  1
  H  H332  1  0.60060000  0.61620000  0.15890000  1
  H  H333  1  0.60060000  0.88380000  0.65890000  1
  H  H334  1  0.60780000  0.63050000  0.88140000  1
  H  H335  1  0.60780000  0.68940000  0.70820000  1
  H  H336  1  0.60780000  0.81060000  0.20820000  1
  H  H337  1  0.60780000  0.86950000  0.38140000  1
  H  H338  1  0.61170000  0.65320000  0.27360000  1
  H  H339  1  0.61170000  0.84680000  0.77360000  1
  H  H340  1  0.61620000  0.15890000  0.60060000  1
  H  H341  1  0.61620000  0.34110000  0.10060000  1
  H  H342  1  0.61710000  0.66860000  0.13670000  1
  H  H343  1  0.61710000  0.83140000  0.63670000  1
  H  H344  1  0.61860000  0.10780000  0.63050000  1
  H  H345  1  0.61860000  0.39220000  0.13050000  1
  H  H346  1  0.62090000  0.06040000  0.76110000  1
  H  H347  1  0.62090000  0.43960000  0.26110000  1
  H  H348  1  0.62550000  0.22330000  0.45370000  1
  H  H349  1  0.62550000  0.27670000  0.95370000  1
  H  H350  1  0.62860000  0.73250000  0.64970000  1
  H  H351  1  0.62860000  0.76750000  0.14970000  1
  H  H352  1  0.63050000  0.61860000  0.10780000  1
  H  H353  1  0.63050000  0.88140000  0.60780000  1
  H  H354  1  0.63670000  0.61710000  0.83140000  1
  H  H355  1  0.63670000  0.88290000  0.33140000  1
  H  H356  1  0.63830000  0.18830000  0.91790000  1
  H  H357  1  0.63830000  0.31170000  0.41790000  1
  H  H358  1  0.63900000  0.65710000  0.55720000  1
  H  H359  1  0.63900000  0.84290000  0.05720000  1
  H  H360  1  0.64680000  0.74940000  0.73500000  1
  H  H361  1  0.64680000  0.75060000  0.23500000  1
  H  H362  1  0.64730000  0.23670000  0.53360000  1
  H  H363  1  0.64730000  0.26330000  0.03360000  1
  H  H364  1  0.64970000  0.62860000  0.73250000  1
  H  H365  1  0.64970000  0.87140000  0.23250000  1
  H  H366  1  0.65320000  0.22640000  0.11170000  1
  H  H367  1  0.65320000  0.27360000  0.61170000  1
  H  H368  1  0.65450000  0.51880000  0.26310000  1
  H  H369  1  0.65450000  0.98120000  0.76310000  1
  H  H370  1  0.65710000  0.55720000  0.63900000  1
  H  H371  1  0.65710000  0.94280000  0.13900000  1
  H  H372  1  0.65830000  0.70220000  0.76870000  1
  H  H373  1  0.65830000  0.79780000  0.26870000  1
  H  H374  1  0.65890000  0.60060000  0.88380000  1
  H  H375  1  0.65890000  0.89940000  0.38380000  1
  H  H376  1  0.66640000  0.58860000  0.30710000  1
  H  H377  1  0.66640000  0.91140000  0.80710000  1
  H  H378  1  0.66860000  0.13670000  0.61710000  1
  H  H379  1  0.66860000  0.36330000  0.11710000  1
  H  H380  1  0.67190000  0.19100000  0.47110000  1
  H  H381  1  0.67190000  0.30900000  0.97110000  1
  H  H382  1  0.67910000  0.59840000  0.58110000  1
  H  H383  1  0.67910000  0.90160000  0.08110000  1
  H  H384  1  0.68830000  0.58210000  0.36170000  1
  H  H385  1  0.68830000  0.91790000  0.86170000  1
  H  H386  1  0.68940000  0.70820000  0.60780000  1
  H  H387  1  0.68940000  0.79180000  0.10780000  1
  H  H388  1  0.69100000  0.02890000  0.32810000  1
  H  H389  1  0.69100000  0.47110000  0.82810000  1
  H  H390  1  0.69290000  0.16640000  0.91140000  1
  H  H391  1  0.69290000  0.33360000  0.41140000  1
  H  H392  1  0.70220000  0.73130000  0.15830000  1
  H  H393  1  0.70220000  0.76870000  0.65830000  1
  H  H394  1  0.70820000  0.60780000  0.68940000  1
  H  H395  1  0.70820000  0.89220000  0.18940000  1
  H  H396  1  0.72270000  0.56160000  0.22940000  1
  H  H397  1  0.72270000  0.93840000  0.72940000  1
  H  H398  1  0.72330000  0.03960000  0.23960000  1
  H  H399  1  0.72330000  0.04630000  0.37450000  1
  H  H400  1  0.72330000  0.45370000  0.87450000  1
  H  H401  1  0.72330000  0.46040000  0.73960000  1
  H  H402  1  0.72640000  0.11170000  0.84680000  1
  H  H403  1  0.72640000  0.38830000  0.34680000  1
  H  H404  1  0.72940000  0.72270000  0.93840000  1
  H  H405  1  0.72940000  0.77730000  0.43840000  1
  H  H406  1  0.73130000  0.15830000  0.70220000  1
  H  H407  1  0.73130000  0.34170000  0.20220000  1
  H  H408  1  0.73250000  0.64970000  0.62860000  1
  H  H409  1  0.73250000  0.85030000  0.12860000  1
  H  H410  1  0.73500000  0.64680000  0.74940000  1
  H  H411  1  0.73500000  0.85320000  0.24940000  1
  H  H412  1  0.73670000  0.53360000  0.85270000  1
  H  H413  1  0.73670000  0.96640000  0.35270000  1
  H  H414  1  0.73690000  0.15450000  0.98120000  1
  H  H415  1  0.73690000  0.34550000  0.48120000  1
  H  H416  1  0.73890000  0.12090000  0.06040000  1
  H  H417  1  0.73890000  0.37910000  0.56040000  1
  H  H418  1  0.73960000  0.72330000  0.46040000  1
  H  H419  1  0.73960000  0.77670000  0.96040000  1
  H  H420  1  0.74940000  0.73500000  0.64680000  1
  H  H421  1  0.74940000  0.76500000  0.14680000  1
  H  H422  1  0.75060000  0.23500000  0.64680000  1
  H  H423  1  0.75060000  0.26500000  0.14680000  1
  H  H424  1  0.76040000  0.22330000  0.46040000  1
  H  H425  1  0.76040000  0.27670000  0.96040000  1
  H  H426  1  0.76110000  0.62090000  0.06040000  1
  H  H427  1  0.76110000  0.87910000  0.56040000  1
  H  H428  1  0.76310000  0.65450000  0.98120000  1
  H  H429  1  0.76310000  0.84550000  0.48120000  1
  H  H430  1  0.76330000  0.03360000  0.85270000  1
  H  H431  1  0.76330000  0.46640000  0.35270000  1
  H  H432  1  0.76500000  0.14680000  0.74940000  1
  H  H433  1  0.76500000  0.35320000  0.24940000  1
  H  H434  1  0.76750000  0.14970000  0.62860000  1
  H  H435  1  0.76750000  0.35030000  0.12860000  1
  H  H436  1  0.76870000  0.65830000  0.70220000  1
  H  H437  1  0.76870000  0.84170000  0.20220000  1
  H  H438  1  0.77060000  0.22270000  0.93840000  1
  H  H439  1  0.77060000  0.27730000  0.43840000  1
  H  H440  1  0.77360000  0.61170000  0.84680000  1
  H  H441  1  0.77360000  0.88830000  0.34680000  1
  H  H442  1  0.77670000  0.53960000  0.23960000  1
  H  H443  1  0.77670000  0.54630000  0.37450000  1
  H  H444  1  0.77670000  0.95370000  0.87450000  1
  H  H445  1  0.77670000  0.96040000  0.73960000  1
  H  H446  1  0.77730000  0.06160000  0.22940000  1
  H  H447  1  0.77730000  0.43840000  0.72940000  1
  H  H448  1  0.79180000  0.10780000  0.68940000  1
  H  H449  1  0.79180000  0.39220000  0.18940000  1
  H  H450  1  0.79780000  0.23130000  0.15830000  1
  H  H451  1  0.79780000  0.26870000  0.65830000  1
  H  H452  1  0.80710000  0.66640000  0.91140000  1
  H  H453  1  0.80710000  0.83360000  0.41140000  1
  H  H454  1  0.80900000  0.52890000  0.32810000  1
  H  H455  1  0.80900000  0.97110000  0.82810000  1
  H  H456  1  0.81060000  0.20820000  0.60780000  1
  H  H457  1  0.81060000  0.29180000  0.10780000  1
  H  H458  1  0.81170000  0.08210000  0.36170000  1
  H  H459  1  0.81170000  0.41790000  0.86170000  1
  H  H460  1  0.82090000  0.09840000  0.58110000  1
  H  H461  1  0.82090000  0.40160000  0.08110000  1
  H  H462  1  0.82810000  0.69100000  0.47110000  1
  H  H463  1  0.82810000  0.80900000  0.97110000  1
  H  H464  1  0.83140000  0.63670000  0.61710000  1
  H  H465  1  0.83140000  0.86330000  0.11710000  1
  H  H466  1  0.83360000  0.08860000  0.30710000  1
  H  H467  1  0.83360000  0.41140000  0.80710000  1
  H  H468  1  0.84110000  0.10060000  0.88380000  1
  H  H469  1  0.84110000  0.39940000  0.38380000  1
  H  H470  1  0.84170000  0.20220000  0.76870000  1
  H  H471  1  0.84170000  0.29780000  0.26870000  1
  H  H472  1  0.84290000  0.05720000  0.63900000  1
  H  H473  1  0.84290000  0.44280000  0.13900000  1
  H  H474  1  0.84550000  0.01880000  0.26310000  1
  H  H475  1  0.84550000  0.48120000  0.76310000  1
  H  H476  1  0.84680000  0.72640000  0.11170000  1
  H  H477  1  0.84680000  0.77360000  0.61170000  1
  H  H478  1  0.85030000  0.12860000  0.73250000  1
  H  H479  1  0.85030000  0.37140000  0.23250000  1
  H  H480  1  0.85270000  0.73670000  0.53360000  1
  H  H481  1  0.85270000  0.76330000  0.03360000  1
  H  H482  1  0.85320000  0.24940000  0.73500000  1
  H  H483  1  0.85320000  0.25060000  0.23500000  1
  H  H484  1  0.86100000  0.15710000  0.55720000  1
  H  H485  1  0.86100000  0.34290000  0.05720000  1
  H  H486  1  0.86170000  0.68830000  0.91790000  1
  H  H487  1  0.86170000  0.81170000  0.41790000  1
  H  H488  1  0.86330000  0.11710000  0.83140000  1
  H  H489  1  0.86330000  0.38290000  0.33140000  1
  H  H490  1  0.86950000  0.11860000  0.10780000  1
  H  H491  1  0.86950000  0.38140000  0.60780000  1
  H  H492  1  0.87140000  0.23250000  0.64970000  1
  H  H493  1  0.87140000  0.26750000  0.14970000  1
  H  H494  1  0.87450000  0.72330000  0.45370000  1
  H  H495  1  0.87450000  0.77670000  0.95370000  1
  H  H496  1  0.87910000  0.56040000  0.76110000  1
  H  H497  1  0.87910000  0.93960000  0.26110000  1
  H  H498  1  0.88140000  0.60780000  0.63050000  1
  H  H499  1  0.88140000  0.89220000  0.13050000  1
  H  H500  1  0.88290000  0.16860000  0.13670000  1
  H  H501  1  0.88290000  0.33140000  0.63670000  1
  H  H502  1  0.88380000  0.65890000  0.60060000  1
  H  H503  1  0.88380000  0.84110000  0.10060000  1
  H  H504  1  0.88830000  0.15320000  0.27360000  1
  H  H505  1  0.88830000  0.34680000  0.77360000  1
  H  H506  1  0.89220000  0.13050000  0.88140000  1
  H  H507  1  0.89220000  0.18940000  0.70820000  1
  H  H508  1  0.89220000  0.31060000  0.20820000  1
  H  H509  1  0.89220000  0.36950000  0.38140000  1
  H  H510  1  0.89940000  0.11620000  0.15890000  1
  H  H511  1  0.89940000  0.38380000  0.65890000  1
  H  H512  1  0.90160000  0.08110000  0.67910000  1
  H  H513  1  0.90160000  0.41890000  0.17910000  1
  H  H514  1  0.91140000  0.69290000  0.16640000  1
  H  H515  1  0.91140000  0.80710000  0.66640000  1
  H  H516  1  0.91790000  0.63830000  0.18830000  1
  H  H517  1  0.91790000  0.86170000  0.68830000  1
  H  H518  1  0.91890000  0.17910000  0.59840000  1
  H  H519  1  0.91890000  0.32090000  0.09840000  1
  H  H520  1  0.93840000  0.72940000  0.72270000  1
  H  H521  1  0.93840000  0.77060000  0.22270000  1
  H  H522  1  0.93960000  0.23890000  0.37910000  1
  H  H523  1  0.93960000  0.26110000  0.87910000  1
  H  H524  1  0.94280000  0.13900000  0.65710000  1
  H  H525  1  0.94280000  0.36100000  0.15710000  1
  H  H526  1  0.95370000  0.62550000  0.27670000  1
  H  H527  1  0.95370000  0.87450000  0.77670000  1
  H  H528  1  0.96040000  0.73960000  0.77670000  1
  H  H529  1  0.96040000  0.76040000  0.27670000  1
  H  H530  1  0.96640000  0.14730000  0.23670000  1
  H  H531  1  0.96640000  0.35270000  0.73670000  1
  H  H532  1  0.97110000  0.67190000  0.30900000  1
  H  H533  1  0.97110000  0.82810000  0.80900000  1
  H  H534  1  0.98120000  0.73690000  0.15450000  1
  H  H535  1  0.98120000  0.76310000  0.65450000  1
  C  C536  1  0.00300000  0.19320000  0.28520000  1
  C  C537  1  0.00300000  0.30680000  0.78520000  1
  C  C538  1  0.00720000  0.71970000  0.17070000  1
  C  C539  1  0.00720000  0.78030000  0.67070000  1
  C  C540  1  0.03780000  0.66730000  0.23470000  1
  C  C541  1  0.03780000  0.83270000  0.73470000  1
  C  C542  1  0.05520000  0.15970000  0.21340000  1
  C  C543  1  0.05520000  0.34030000  0.71340000  1
  C  C544  1  0.05530000  0.72090000  0.15070000  1
  C  C545  1  0.05530000  0.77910000  0.65070000  1
  C  C546  1  0.05640000  0.19360000  0.26160000  1
  C  C547  1  0.05640000  0.30640000  0.76160000  1
  C  C548  1  0.06530000  0.25000000  0.24730000  1
  C  C549  1  0.06530000  0.25000000  0.74730000  1
  C  C550  1  0.08510000  0.67100000  0.21190000  1
  C  C551  1  0.08510000  0.82900000  0.71190000  1
  C  C552  1  0.09250000  0.17250000  0.30340000  1
  C  C553  1  0.09250000  0.32750000  0.80340000  1
  C  C554  1  0.09300000  0.64040000  0.84860000  1
  C  C555  1  0.09300000  0.85960000  0.34860000  1
  C  C556  1  0.10780000  0.66430000  0.88190000  1
  C  C557  1  0.10780000  0.83570000  0.38190000  1
  C  C558  1  0.11810000  0.60780000  0.83570000  1
  C  C559  1  0.11810000  0.89220000  0.33570000  1
  C  C560  1  0.12340000  0.67060000  0.81860000  1
  C  C561  1  0.12340000  0.82940000  0.31860000  1
  C  C562  1  0.12650000  0.63400000  0.35950000  1
  C  C563  1  0.12650000  0.86600000  0.85950000  1
  C  C564  1  0.13030000  0.17000000  0.82280000  1
  C  C565  1  0.13030000  0.33000000  0.32280000  1
  C  C566  1  0.13400000  0.14050000  0.87350000  1
  C  C567  1  0.13400000  0.35950000  0.37350000  1
  C  C568  1  0.13610000  0.69700000  0.85240000  1
  C  C569  1  0.13610000  0.80300000  0.35240000  1
  C  C570  1  0.14040000  0.65140000  0.90700000  1
  C  C571  1  0.14040000  0.84860000  0.40700000  1
  C  C572  1  0.14050000  0.62650000  0.63400000  1
  C  C573  1  0.14050000  0.87350000  0.13400000  1
  C  C574  1  0.14760000  0.63610000  0.80300000  1
  C  C575  1  0.14760000  0.86390000  0.30300000  1
  C  C576  1  0.15070000  0.05530000  0.72090000  1
  C  C577  1  0.15070000  0.44470000  0.22090000  1
  C  C578  1  0.15140000  0.59300000  0.85960000  1
  C  C579  1  0.15140000  0.90700000  0.35960000  1
  C  C580  1  0.15970000  0.21340000  0.05520000  1
  C  C581  1  0.15970000  0.28660000  0.55520000  1
  C  C582  1  0.16430000  0.61810000  0.89220000  1
  C  C583  1  0.16430000  0.88190000  0.39220000  1
  C  C584  1  0.16730000  0.23470000  0.46220000  1
  C  C585  1  0.16730000  0.26530000  0.96220000  1
  C  C586  1  0.17000000  0.67720000  0.63030000  1
  C  C587  1  0.17000000  0.82280000  0.13030000  1
  C  C588  1  0.17060000  0.68140000  0.87660000  1
  C  C589  1  0.17060000  0.81860000  0.37660000  1
  C  C590  1  0.17070000  0.00720000  0.71970000  1
  C  C591  1  0.17070000  0.49280000  0.21970000  1
  C  C592  1  0.17100000  0.21190000  0.41490000  1
  C  C593  1  0.17100000  0.28810000  0.91490000  1
  C  C594  1  0.17250000  0.19660000  0.59250000  1
  C  C595  1  0.17250000  0.30340000  0.09250000  1
  C  C596  1  0.17370000  0.73040000  0.74900000  1
  C  C597  1  0.17370000  0.76960000  0.24900000  1
  C  C598  1  0.17530000  0.67530000  0.82470000  1
  C  C599  1  0.17530000  0.82470000  0.32470000  1
  C  C600  1  0.17720000  0.63030000  0.33000000  1
  C  C601  1  0.17720000  0.86970000  0.83000000  1
  C  C602  1  0.18140000  0.62340000  0.82940000  1
  C  C603  1  0.18140000  0.87660000  0.32940000  1
  C  C604  1  0.19320000  0.21480000  0.50300000  1
  C  C605  1  0.19320000  0.28520000  0.00300000  1
  C  C606  1  0.19360000  0.23840000  0.55640000  1
  C  C607  1  0.19360000  0.26160000  0.05640000  1
  C  C608  1  0.19660000  0.59250000  0.17250000  1
  C  C609  1  0.19660000  0.90750000  0.67250000  1
  C  C610  1  0.19700000  0.64760000  0.86390000  1
  C  C611  1  0.19700000  0.85240000  0.36390000  1
  C  C612  1  0.20920000  0.70920000  0.79080000  1
  C  C613  1  0.20920000  0.79080000  0.29080000  1
  C  C614  1  0.21190000  0.08510000  0.67100000  1
  C  C615  1  0.21190000  0.41490000  0.17100000  1
  C  C616  1  0.21340000  0.05520000  0.15970000  1
  C  C617  1  0.21340000  0.44480000  0.65970000  1
  C  C618  1  0.21480000  0.50300000  0.19320000  1
  C  C619  1  0.21480000  0.99700000  0.69320000  1
  C  C620  1  0.21970000  0.17070000  0.49280000  1
  C  C621  1  0.21970000  0.32930000  0.99280000  1
  C  C622  1  0.22090000  0.15070000  0.44470000  1
  C  C623  1  0.22090000  0.34930000  0.94470000  1
  C  C624  1  0.23040000  0.74900000  0.32630000  1
  C  C625  1  0.23040000  0.75100000  0.82630000  1
  C  C626  1  0.23470000  0.03780000  0.66730000  1
  C  C627  1  0.23470000  0.46220000  0.16730000  1
  C  C628  1  0.23840000  0.55640000  0.19360000  1
  C  C629  1  0.23840000  0.94360000  0.69360000  1
  C  C630  1  0.24730000  0.06530000  0.25000000  1
  C  C631  1  0.24730000  0.43470000  0.75000000  1
  C  C632  1  0.24900000  0.17370000  0.76960000  1
  C  C633  1  0.24900000  0.32630000  0.26960000  1
  C  C634  1  0.25000000  0.24730000  0.06530000  1
  C  C635  1  0.25000000  0.25270000  0.56530000  1
  C  C636  1  0.25000000  0.74730000  0.06530000  1
  C  C637  1  0.25000000  0.75270000  0.56530000  1
  C  C638  1  0.25100000  0.67370000  0.76960000  1
  C  C639  1  0.25100000  0.82630000  0.26960000  1
  C  C640  1  0.25270000  0.56530000  0.25000000  1
  C  C641  1  0.25270000  0.93470000  0.75000000  1
  C  C642  1  0.26160000  0.05640000  0.19360000  1
  C  C643  1  0.26160000  0.44360000  0.69360000  1
  C  C644  1  0.26530000  0.53780000  0.66730000  1
  C  C645  1  0.26530000  0.96220000  0.16730000  1
  C  C646  1  0.26960000  0.24900000  0.32630000  1
  C  C647  1  0.26960000  0.25100000  0.82630000  1
  C  C648  1  0.27910000  0.65070000  0.44470000  1
  C  C649  1  0.27910000  0.84930000  0.94470000  1
  C  C650  1  0.28030000  0.67070000  0.49280000  1
  C  C651  1  0.28030000  0.82930000  0.99280000  1
  C  C652  1  0.28520000  0.00300000  0.19320000  1
  C  C653  1  0.28520000  0.49700000  0.69320000  1
  C  C654  1  0.28660000  0.55520000  0.15970000  1
  C  C655  1  0.28660000  0.94480000  0.65970000  1
  C  C656  1  0.28810000  0.58510000  0.67100000  1
  C  C657  1  0.28810000  0.91490000  0.17100000  1
  C  C658  1  0.29080000  0.20920000  0.79080000  1
  C  C659  1  0.29080000  0.29080000  0.29080000  1
  C  C660  1  0.30300000  0.14760000  0.86390000  1
  C  C661  1  0.30300000  0.35240000  0.36390000  1
  C  C662  1  0.30340000  0.09250000  0.17250000  1
  C  C663  1  0.30340000  0.40750000  0.67250000  1
  C  C664  1  0.30640000  0.73840000  0.55640000  1
  C  C665  1  0.30640000  0.76160000  0.05640000  1
  C  C666  1  0.30680000  0.71480000  0.50300000  1
  C  C667  1  0.30680000  0.78520000  0.00300000  1
  C  C668  1  0.31860000  0.12340000  0.82940000  1
  C  C669  1  0.31860000  0.37660000  0.32940000  1
  C  C670  1  0.32280000  0.13030000  0.33000000  1
  C  C671  1  0.32280000  0.36970000  0.83000000  1
  C  C672  1  0.32470000  0.17530000  0.82470000  1
  C  C673  1  0.32470000  0.32470000  0.32470000  1
  C  C674  1  0.32630000  0.23040000  0.74900000  1
  C  C675  1  0.32630000  0.26960000  0.24900000  1
  C  C676  1  0.32750000  0.69660000  0.59250000  1
  C  C677  1  0.32750000  0.80340000  0.09250000  1
  C  C678  1  0.32900000  0.71190000  0.41490000  1
  C  C679  1  0.32900000  0.78810000  0.91490000  1
  C  C680  1  0.32930000  0.50720000  0.71970000  1
  C  C681  1  0.32930000  0.99280000  0.21970000  1
  C  C682  1  0.32940000  0.18140000  0.87660000  1
  C  C683  1  0.32940000  0.31860000  0.37660000  1
  C  C684  1  0.33000000  0.17720000  0.63030000  1
  C  C685  1  0.33000000  0.32280000  0.13030000  1
  C  C686  1  0.33270000  0.73470000  0.46220000  1
  C  C687  1  0.33270000  0.76530000  0.96220000  1
  C  C688  1  0.33570000  0.11810000  0.89220000  1
  C  C689  1  0.33570000  0.38190000  0.39220000  1
  C  C690  1  0.34030000  0.71340000  0.05520000  1
  C  C691  1  0.34030000  0.78660000  0.55520000  1
  C  C692  1  0.34860000  0.09300000  0.85960000  1
  C  C693  1  0.34860000  0.40700000  0.35960000  1
  C  C694  1  0.34930000  0.55530000  0.72090000  1
  C  C695  1  0.34930000  0.94470000  0.22090000  1
  C  C696  1  0.35240000  0.13610000  0.80300000  1
  C  C697  1  0.35240000  0.36390000  0.30300000  1
  C  C698  1  0.35950000  0.12650000  0.63400000  1
  C  C699  1  0.35950000  0.37350000  0.13400000  1
  C  C700  1  0.35960000  0.15140000  0.90700000  1
  C  C701  1  0.35960000  0.34860000  0.40700000  1
  C  C702  1  0.36390000  0.19700000  0.85240000  1
  C  C703  1  0.36390000  0.30300000  0.35240000  1
  C  C704  1  0.36600000  0.64050000  0.87350000  1
  C  C705  1  0.36600000  0.85950000  0.37350000  1
  C  C706  1  0.36970000  0.67000000  0.82280000  1
  C  C707  1  0.36970000  0.83000000  0.32280000  1
  C  C708  1  0.37350000  0.13400000  0.35950000  1
  C  C709  1  0.37350000  0.36600000  0.85950000  1
  C  C710  1  0.37660000  0.17060000  0.81860000  1
  C  C711  1  0.37660000  0.32940000  0.31860000  1
  C  C712  1  0.38190000  0.10780000  0.83570000  1
  C  C713  1  0.38190000  0.39220000  0.33570000  1
  C  C714  1  0.39220000  0.16430000  0.88190000  1
  C  C715  1  0.39220000  0.33570000  0.38190000  1
  C  C716  1  0.40700000  0.14040000  0.84860000  1
  C  C717  1  0.40700000  0.35960000  0.34860000  1
  C  C718  1  0.40750000  0.67250000  0.30340000  1
  C  C719  1  0.40750000  0.82750000  0.80340000  1
  C  C720  1  0.41490000  0.17100000  0.21190000  1
  C  C721  1  0.41490000  0.32900000  0.71190000  1
  C  C722  1  0.43470000  0.75000000  0.24730000  1
  C  C723  1  0.43470000  0.75000000  0.74730000  1
  C  C724  1  0.44360000  0.69360000  0.26160000  1
  C  C725  1  0.44360000  0.80640000  0.76160000  1
  C  C726  1  0.44470000  0.22090000  0.15070000  1
  C  C727  1  0.44470000  0.27910000  0.65070000  1
  C  C728  1  0.44480000  0.65970000  0.21340000  1
  C  C729  1  0.44480000  0.84030000  0.71340000  1
  C  C730  1  0.46220000  0.16730000  0.23470000  1
  C  C731  1  0.46220000  0.33270000  0.73470000  1
  C  C732  1  0.49280000  0.21970000  0.17070000  1
  C  C733  1  0.49280000  0.28030000  0.67070000  1
  C  C734  1  0.49700000  0.69320000  0.28520000  1
  C  C735  1  0.49700000  0.80680000  0.78520000  1
  C  C736  1  0.50300000  0.19320000  0.21480000  1
  C  C737  1  0.50300000  0.30680000  0.71480000  1
  C  C738  1  0.50720000  0.71970000  0.32930000  1
  C  C739  1  0.50720000  0.78030000  0.82930000  1
  C  C740  1  0.53780000  0.66730000  0.26530000  1
  C  C741  1  0.53780000  0.83270000  0.76530000  1
  C  C742  1  0.55520000  0.15970000  0.28660000  1
  C  C743  1  0.55520000  0.34030000  0.78660000  1
  C  C744  1  0.55530000  0.72090000  0.34930000  1
  C  C745  1  0.55530000  0.77910000  0.84930000  1
  C  C746  1  0.55640000  0.19360000  0.23840000  1
  C  C747  1  0.55640000  0.30640000  0.73840000  1
  C  C748  1  0.56530000  0.25000000  0.25270000  1
  C  C749  1  0.56530000  0.25000000  0.75270000  1
  C  C750  1  0.58510000  0.67100000  0.28810000  1
  C  C751  1  0.58510000  0.82900000  0.78810000  1
  C  C752  1  0.59250000  0.17250000  0.19660000  1
  C  C753  1  0.59250000  0.32750000  0.69660000  1
  C  C754  1  0.59300000  0.64040000  0.65140000  1
  C  C755  1  0.59300000  0.85960000  0.15140000  1
  C  C756  1  0.60780000  0.66430000  0.61810000  1
  C  C757  1  0.60780000  0.83570000  0.11810000  1
  C  C758  1  0.61810000  0.60780000  0.66430000  1
  C  C759  1  0.61810000  0.89220000  0.16430000  1
  C  C760  1  0.62340000  0.67060000  0.68140000  1
  C  C761  1  0.62340000  0.82940000  0.18140000  1
  C  C762  1  0.62650000  0.63400000  0.14050000  1
  C  C763  1  0.62650000  0.86600000  0.64050000  1
  C  C764  1  0.63030000  0.17000000  0.67720000  1
  C  C765  1  0.63030000  0.33000000  0.17720000  1
  C  C766  1  0.63400000  0.14050000  0.62650000  1
  C  C767  1  0.63400000  0.35950000  0.12650000  1
  C  C768  1  0.63610000  0.69700000  0.64760000  1
  C  C769  1  0.63610000  0.80300000  0.14760000  1
  C  C770  1  0.64040000  0.65140000  0.59300000  1
  C  C771  1  0.64040000  0.84860000  0.09300000  1
  C  C772  1  0.64050000  0.62650000  0.86600000  1
  C  C773  1  0.64050000  0.87350000  0.36600000  1
  C  C774  1  0.64760000  0.63610000  0.69700000  1
  C  C775  1  0.64760000  0.86390000  0.19700000  1
  C  C776  1  0.65070000  0.05530000  0.77910000  1
  C  C777  1  0.65070000  0.44470000  0.27910000  1
  C  C778  1  0.65140000  0.59300000  0.64040000  1
  C  C779  1  0.65140000  0.90700000  0.14040000  1
  C  C780  1  0.65970000  0.21340000  0.44480000  1
  C  C781  1  0.65970000  0.28660000  0.94480000  1
  C  C782  1  0.66430000  0.61810000  0.60780000  1
  C  C783  1  0.66430000  0.88190000  0.10780000  1
  C  C784  1  0.66730000  0.23470000  0.03780000  1
  C  C785  1  0.66730000  0.26530000  0.53780000  1
  C  C786  1  0.67000000  0.67720000  0.86970000  1
  C  C787  1  0.67000000  0.82280000  0.36970000  1
  C  C788  1  0.67060000  0.68140000  0.62340000  1
  C  C789  1  0.67060000  0.81860000  0.12340000  1
  C  C790  1  0.67070000  0.00720000  0.78030000  1
  C  C791  1  0.67070000  0.49280000  0.28030000  1
  C  C792  1  0.67100000  0.21190000  0.08510000  1
  C  C793  1  0.67100000  0.28810000  0.58510000  1
  C  C794  1  0.67250000  0.19660000  0.90750000  1
  C  C795  1  0.67250000  0.30340000  0.40750000  1
  C  C796  1  0.67370000  0.73040000  0.75100000  1
  C  C797  1  0.67370000  0.76960000  0.25100000  1
  C  C798  1  0.67530000  0.67530000  0.67530000  1
  C  C799  1  0.67530000  0.82470000  0.17530000  1
  C  C800  1  0.67720000  0.63030000  0.17000000  1
  C  C801  1  0.67720000  0.86970000  0.67000000  1
  C  C802  1  0.68140000  0.62340000  0.67060000  1
  C  C803  1  0.68140000  0.87660000  0.17060000  1
  C  C804  1  0.69320000  0.21480000  0.99700000  1
  C  C805  1  0.69320000  0.28520000  0.49700000  1
  C  C806  1  0.69360000  0.23840000  0.94360000  1
  C  C807  1  0.69360000  0.26160000  0.44360000  1
  C  C808  1  0.69660000  0.59250000  0.32750000  1
  C  C809  1  0.69660000  0.90750000  0.82750000  1
  C  C810  1  0.69700000  0.64760000  0.63610000  1
  C  C811  1  0.69700000  0.85240000  0.13610000  1
  C  C812  1  0.70920000  0.70920000  0.70920000  1
  C  C813  1  0.70920000  0.79080000  0.20920000  1
  C  C814  1  0.71190000  0.08510000  0.82900000  1
  C  C815  1  0.71190000  0.41490000  0.32900000  1
  C  C816  1  0.71340000  0.05520000  0.34030000  1
  C  C817  1  0.71340000  0.44480000  0.84030000  1
  C  C818  1  0.71480000  0.50300000  0.30680000  1
  C  C819  1  0.71480000  0.99700000  0.80680000  1
  C  C820  1  0.71970000  0.17070000  0.00720000  1
  C  C821  1  0.71970000  0.32930000  0.50720000  1
  C  C822  1  0.72090000  0.15070000  0.05530000  1
  C  C823  1  0.72090000  0.34930000  0.55530000  1
  C  C824  1  0.73040000  0.74900000  0.17370000  1
  C  C825  1  0.73040000  0.75100000  0.67370000  1
  C  C826  1  0.73470000  0.03780000  0.83270000  1
  C  C827  1  0.73470000  0.46220000  0.33270000  1
  C  C828  1  0.73840000  0.55640000  0.30640000  1
  C  C829  1  0.73840000  0.94360000  0.80640000  1
  C  C830  1  0.74730000  0.06530000  0.25000000  1
  C  C831  1  0.74730000  0.43470000  0.75000000  1
  C  C832  1  0.74900000  0.17370000  0.73040000  1
  C  C833  1  0.74900000  0.32630000  0.23040000  1
  C  C834  1  0.75000000  0.24730000  0.43470000  1
  C  C835  1  0.75000000  0.25270000  0.93470000  1
  C  C836  1  0.75000000  0.74730000  0.43470000  1
  C  C837  1  0.75000000  0.75270000  0.93470000  1
  C  C838  1  0.75100000  0.67370000  0.73040000  1
  C  C839  1  0.75100000  0.82630000  0.23040000  1
  C  C840  1  0.75270000  0.56530000  0.25000000  1
  C  C841  1  0.75270000  0.93470000  0.75000000  1
  C  C842  1  0.76160000  0.05640000  0.30640000  1
  C  C843  1  0.76160000  0.44360000  0.80640000  1
  C  C844  1  0.76530000  0.53780000  0.83270000  1
  C  C845  1  0.76530000  0.96220000  0.33270000  1
  C  C846  1  0.76960000  0.24900000  0.17370000  1
  C  C847  1  0.76960000  0.25100000  0.67370000  1
  C  C848  1  0.77910000  0.65070000  0.05530000  1
  C  C849  1  0.77910000  0.84930000  0.55530000  1
  C  C850  1  0.78030000  0.67070000  0.00720000  1
  C  C851  1  0.78030000  0.82930000  0.50720000  1
  C  C852  1  0.78520000  0.00300000  0.30680000  1
  C  C853  1  0.78520000  0.49700000  0.80680000  1
  C  C854  1  0.78660000  0.55520000  0.34030000  1
  C  C855  1  0.78660000  0.94480000  0.84030000  1
  C  C856  1  0.78810000  0.58510000  0.82900000  1
  C  C857  1  0.78810000  0.91490000  0.32900000  1
  C  C858  1  0.79080000  0.20920000  0.70920000  1
  C  C859  1  0.79080000  0.29080000  0.20920000  1
  C  C860  1  0.80300000  0.14760000  0.63610000  1
  C  C861  1  0.80300000  0.35240000  0.13610000  1
  C  C862  1  0.80340000  0.09250000  0.32750000  1
  C  C863  1  0.80340000  0.40750000  0.82750000  1
  C  C864  1  0.80640000  0.73840000  0.94360000  1
  C  C865  1  0.80640000  0.76160000  0.44360000  1
  C  C866  1  0.80680000  0.71480000  0.99700000  1
  C  C867  1  0.80680000  0.78520000  0.49700000  1
  C  C868  1  0.81860000  0.12340000  0.67060000  1
  C  C869  1  0.81860000  0.37660000  0.17060000  1
  C  C870  1  0.82280000  0.13030000  0.17000000  1
  C  C871  1  0.82280000  0.36970000  0.67000000  1
  C  C872  1  0.82470000  0.17530000  0.67530000  1
  C  C873  1  0.82470000  0.32470000  0.17530000  1
  C  C874  1  0.82630000  0.23040000  0.75100000  1
  C  C875  1  0.82630000  0.26960000  0.25100000  1
  C  C876  1  0.82750000  0.69660000  0.90750000  1
  C  C877  1  0.82750000  0.80340000  0.40750000  1
  C  C878  1  0.82900000  0.71190000  0.08510000  1
  C  C879  1  0.82900000  0.78810000  0.58510000  1
  C  C880  1  0.82930000  0.50720000  0.78030000  1
  C  C881  1  0.82930000  0.99280000  0.28030000  1
  C  C882  1  0.82940000  0.18140000  0.62340000  1
  C  C883  1  0.82940000  0.31860000  0.12340000  1
  C  C884  1  0.83000000  0.17720000  0.86970000  1
  C  C885  1  0.83000000  0.32280000  0.36970000  1
  C  C886  1  0.83270000  0.73470000  0.03780000  1
  C  C887  1  0.83270000  0.76530000  0.53780000  1
  C  C888  1  0.83570000  0.11810000  0.60780000  1
  C  C889  1  0.83570000  0.38190000  0.10780000  1
  C  C890  1  0.84030000  0.71340000  0.44480000  1
  C  C891  1  0.84030000  0.78660000  0.94480000  1
  C  C892  1  0.84860000  0.09300000  0.64040000  1
  C  C893  1  0.84860000  0.40700000  0.14040000  1
  C  C894  1  0.84930000  0.55530000  0.77910000  1
  C  C895  1  0.84930000  0.94470000  0.27910000  1
  C  C896  1  0.85240000  0.13610000  0.69700000  1
  C  C897  1  0.85240000  0.36390000  0.19700000  1
  C  C898  1  0.85950000  0.12650000  0.86600000  1
  C  C899  1  0.85950000  0.37350000  0.36600000  1
  C  C900  1  0.85960000  0.15140000  0.59300000  1
  C  C901  1  0.85960000  0.34860000  0.09300000  1
  C  C902  1  0.86390000  0.19700000  0.64760000  1
  C  C903  1  0.86390000  0.30300000  0.14760000  1
  C  C904  1  0.86600000  0.64050000  0.62650000  1
  C  C905  1  0.86600000  0.85950000  0.12650000  1
  C  C906  1  0.86970000  0.67000000  0.67720000  1
  C  C907  1  0.86970000  0.83000000  0.17720000  1
  C  C908  1  0.87350000  0.13400000  0.14050000  1
  C  C909  1  0.87350000  0.36600000  0.64050000  1
  C  C910  1  0.87660000  0.17060000  0.68140000  1
  C  C911  1  0.87660000  0.32940000  0.18140000  1
  C  C912  1  0.88190000  0.10780000  0.66430000  1
  C  C913  1  0.88190000  0.39220000  0.16430000  1
  C  C914  1  0.89220000  0.16430000  0.61810000  1
  C  C915  1  0.89220000  0.33570000  0.11810000  1
  C  C916  1  0.90700000  0.14040000  0.65140000  1
  C  C917  1  0.90700000  0.35960000  0.15140000  1
  C  C918  1  0.90750000  0.67250000  0.19660000  1
  C  C919  1  0.90750000  0.82750000  0.69660000  1
  C  C920  1  0.91490000  0.17100000  0.28810000  1
  C  C921  1  0.91490000  0.32900000  0.78810000  1
  C  C922  1  0.93470000  0.75000000  0.25270000  1
  C  C923  1  0.93470000  0.75000000  0.75270000  1
  C  C924  1  0.94360000  0.69360000  0.23840000  1
  C  C925  1  0.94360000  0.80640000  0.73840000  1
  C  C926  1  0.94470000  0.22090000  0.34930000  1
  C  C927  1  0.94470000  0.27910000  0.84930000  1
  C  C928  1  0.94480000  0.65970000  0.28660000  1
  C  C929  1  0.94480000  0.84030000  0.78660000  1
  C  C930  1  0.96220000  0.16730000  0.26530000  1
  C  C931  1  0.96220000  0.33270000  0.76530000  1
  C  C932  1  0.99280000  0.21970000  0.32930000  1
  C  C933  1  0.99280000  0.28030000  0.82930000  1
  C  C934  1  0.99700000  0.69320000  0.21480000  1
  C  C935  1  0.99700000  0.80680000  0.71480000  1
  N  N936  1  0.09450000  0.69810000  0.17130000  1
  N  N937  1  0.09450000  0.80190000  0.67130000  1
  N  N938  1  0.11400000  0.61400000  0.88600000  1
  N  N939  1  0.11400000  0.88600000  0.38600000  1
  N  N940  1  0.17130000  0.09450000  0.69810000  1
  N  N941  1  0.17130000  0.40550000  0.19810000  1
  N  N942  1  0.19810000  0.17130000  0.40550000  1
  N  N943  1  0.19810000  0.32870000  0.90550000  1
  N  N944  1  0.30190000  0.67130000  0.40550000  1
  N  N945  1  0.30190000  0.82870000  0.90550000  1
  N  N946  1  0.32870000  0.59450000  0.69810000  1
  N  N947  1  0.32870000  0.90550000  0.19810000  1
  N  N948  1  0.38600000  0.11400000  0.88600000  1
  N  N949  1  0.38600000  0.38600000  0.38600000  1
  N  N950  1  0.40550000  0.19810000  0.17130000  1
  N  N951  1  0.40550000  0.30190000  0.67130000  1
  N  N952  1  0.59450000  0.69810000  0.32870000  1
  N  N953  1  0.59450000  0.80190000  0.82870000  1
  N  N954  1  0.61400000  0.61400000  0.61400000  1
  N  N955  1  0.61400000  0.88600000  0.11400000  1
  N  N956  1  0.67130000  0.09450000  0.80190000  1
  N  N957  1  0.67130000  0.40550000  0.30190000  1
  N  N958  1  0.69810000  0.17130000  0.09450000  1
  N  N959  1  0.69810000  0.32870000  0.59450000  1
  N  N960  1  0.80190000  0.67130000  0.09450000  1
  N  N961  1  0.80190000  0.82870000  0.59450000  1
  N  N962  1  0.82870000  0.59450000  0.80190000  1
  N  N963  1  0.82870000  0.90550000  0.30190000  1
  N  N964  1  0.88600000  0.11400000  0.61400000  1
  N  N965  1  0.88600000  0.38600000  0.11400000  1
  N  N966  1  0.90550000  0.19810000  0.32870000  1
  N  N967  1  0.90550000  0.30190000  0.82870000  1
  O  O968  1  0.10155000  0.15833000  0.18654000  1
  O  O969  1  0.10155000  0.34167000  0.68654000  1
  O  O970  1  0.11389000  0.24095000  0.72575000  1
  O  O971  1  0.11389000  0.25905000  0.22575000  1
  O  O972  1  0.12260000  0.14610000  0.78290000  1
  O  O973  1  0.12260000  0.35390000  0.28290000  1
  O  O974  1  0.14426000  0.17188000  0.28942000  1
  O  O975  1  0.14426000  0.32812000  0.78942000  1
  O  O976  1  0.14610000  0.71710000  0.62260000  1
  O  O977  1  0.14610000  0.78290000  0.12260000  1
  O  O978  1  0.14850000  0.21420000  0.82640000  1
  O  O979  1  0.14850000  0.28580000  0.32640000  1
  O  O980  1  0.15833000  0.18654000  0.10155000  1
  O  O981  1  0.15833000  0.31346000  0.60155000  1
  O  O982  1  0.17188000  0.21058000  0.64426000  1
  O  O983  1  0.17188000  0.28942000  0.14426000  1
  O  O984  1  0.17360000  0.64850000  0.28580000  1
  O  O985  1  0.17360000  0.85150000  0.78580000  1
  O  O986  1  0.18654000  0.10155000  0.15833000  1
  O  O987  1  0.18654000  0.39845000  0.65833000  1
  O  O988  1  0.19832000  0.73807000  0.21326000  1
  O  O989  1  0.19832000  0.76193000  0.71326000  1
  O  O990  1  0.20004000  0.20004000  0.20004000  1
  O  O991  1  0.20004000  0.29996000  0.70004000  1
  O  O992  1  0.21058000  0.64426000  0.17188000  1
  O  O993  1  0.21058000  0.85574000  0.67188000  1
  O  O994  1  0.21326000  0.19832000  0.73807000  1
  O  O995  1  0.21326000  0.30168000  0.23807000  1
  O  O996  1  0.21420000  0.67360000  0.64850000  1
  O  O997  1  0.21420000  0.82640000  0.14850000  1
  O  O998  1  0.21710000  0.62260000  0.35390000  1
  O  O999  1  0.21710000  0.87740000  0.85390000  1
  O  O1000  1  0.22575000  0.11389000  0.25905000  1
  O  O1001  1  0.22575000  0.38611000  0.75905000  1
  O  O1002  1  0.23807000  0.21326000  0.30168000  1
  O  O1003  1  0.23807000  0.28674000  0.80168000  1
  O  O1004  1  0.24095000  0.72575000  0.11389000  1
  O  O1005  1  0.24095000  0.77425000  0.61389000  1
  O  O1006  1  0.25905000  0.22575000  0.11389000  1
  O  O1007  1  0.25905000  0.27425000  0.61389000  1
  O  O1008  1  0.26193000  0.71326000  0.30168000  1
  O  O1009  1  0.26193000  0.78674000  0.80168000  1
  O  O1010  1  0.27425000  0.61389000  0.25905000  1
  O  O1011  1  0.27425000  0.88611000  0.75905000  1
  O  O1012  1  0.28290000  0.12260000  0.35390000  1
  O  O1013  1  0.28290000  0.37740000  0.85390000  1
  O  O1014  1  0.28580000  0.17360000  0.64850000  1
  O  O1015  1  0.28580000  0.32640000  0.14850000  1
  O  O1016  1  0.28674000  0.69832000  0.73807000  1
  O  O1017  1  0.28674000  0.80168000  0.23807000  1
  O  O1018  1  0.28942000  0.14426000  0.17188000  1
  O  O1019  1  0.28942000  0.35574000  0.67188000  1
  O  O1020  1  0.29996000  0.70004000  0.20004000  1
  O  O1021  1  0.29996000  0.79996000  0.70004000  1
  O  O1022  1  0.30168000  0.23807000  0.21326000  1
  O  O1023  1  0.30168000  0.26193000  0.71326000  1
  O  O1024  1  0.31346000  0.60155000  0.15833000  1
  O  O1025  1  0.31346000  0.89845000  0.65833000  1
  O  O1026  1  0.32640000  0.14850000  0.28580000  1
  O  O1027  1  0.32640000  0.35150000  0.78580000  1
  O  O1028  1  0.32812000  0.71058000  0.64426000  1
  O  O1029  1  0.32812000  0.78942000  0.14426000  1
  O  O1030  1  0.34167000  0.68654000  0.10155000  1
  O  O1031  1  0.34167000  0.81346000  0.60155000  1
  O  O1032  1  0.35150000  0.71420000  0.82640000  1
  O  O1033  1  0.35150000  0.78580000  0.32640000  1
  O  O1034  1  0.35390000  0.21710000  0.62260000  1
  O  O1035  1  0.35390000  0.28290000  0.12260000  1
  O  O1036  1  0.35574000  0.67188000  0.28942000  1
  O  O1037  1  0.35574000  0.82812000  0.78942000  1
  O  O1038  1  0.37740000  0.64610000  0.78290000  1
  O  O1039  1  0.37740000  0.85390000  0.28290000  1
  O  O1040  1  0.38611000  0.74095000  0.72575000  1
  O  O1041  1  0.38611000  0.75905000  0.22575000  1
  O  O1042  1  0.39845000  0.65833000  0.18654000  1
  O  O1043  1  0.39845000  0.84167000  0.68654000  1
  O  O1044  1  0.60155000  0.15833000  0.31346000  1
  O  O1045  1  0.60155000  0.34167000  0.81346000  1
  O  O1046  1  0.61389000  0.24095000  0.77425000  1
  O  O1047  1  0.61389000  0.25905000  0.27425000  1
  O  O1048  1  0.62260000  0.14610000  0.71710000  1
  O  O1049  1  0.62260000  0.35390000  0.21710000  1
  O  O1050  1  0.64426000  0.17188000  0.21058000  1
  O  O1051  1  0.64426000  0.32812000  0.71058000  1
  O  O1052  1  0.64610000  0.71710000  0.87740000  1
  O  O1053  1  0.64610000  0.78290000  0.37740000  1
  O  O1054  1  0.64850000  0.21420000  0.67360000  1
  O  O1055  1  0.64850000  0.28580000  0.17360000  1
  O  O1056  1  0.65833000  0.18654000  0.39845000  1
  O  O1057  1  0.65833000  0.31346000  0.89845000  1
  O  O1058  1  0.67188000  0.21058000  0.85574000  1
  O  O1059  1  0.67188000  0.28942000  0.35574000  1
  O  O1060  1  0.67360000  0.64850000  0.21420000  1
  O  O1061  1  0.67360000  0.85150000  0.71420000  1
  O  O1062  1  0.68654000  0.10155000  0.34167000  1
  O  O1063  1  0.68654000  0.39845000  0.84167000  1
  O  O1064  1  0.69832000  0.73807000  0.28674000  1
  O  O1065  1  0.69832000  0.76193000  0.78674000  1
  O  O1066  1  0.70004000  0.20004000  0.29996000  1
  O  O1067  1  0.70004000  0.29996000  0.79996000  1
  O  O1068  1  0.71058000  0.64426000  0.32812000  1
  O  O1069  1  0.71058000  0.85574000  0.82812000  1
  O  O1070  1  0.71326000  0.19832000  0.76193000  1
  O  O1071  1  0.71326000  0.30168000  0.26193000  1
  O  O1072  1  0.71420000  0.67360000  0.85150000  1
  O  O1073  1  0.71420000  0.82640000  0.35150000  1
  O  O1074  1  0.71710000  0.62260000  0.14610000  1
  O  O1075  1  0.71710000  0.87740000  0.64610000  1
  O  O1076  1  0.72575000  0.11389000  0.24095000  1
  O  O1077  1  0.72575000  0.38611000  0.74095000  1
  O  O1078  1  0.73807000  0.21326000  0.19832000  1
  O  O1079  1  0.73807000  0.28674000  0.69832000  1
  O  O1080  1  0.74095000  0.72575000  0.38611000  1
  O  O1081  1  0.74095000  0.77425000  0.88611000  1
  O  O1082  1  0.75905000  0.22575000  0.38611000  1
  O  O1083  1  0.75905000  0.27425000  0.88611000  1
  O  O1084  1  0.76193000  0.71326000  0.19832000  1
  O  O1085  1  0.76193000  0.78674000  0.69832000  1
  O  O1086  1  0.77425000  0.61389000  0.24095000  1
  O  O1087  1  0.77425000  0.88611000  0.74095000  1
  O  O1088  1  0.78290000  0.12260000  0.14610000  1
  O  O1089  1  0.78290000  0.37740000  0.64610000  1
  O  O1090  1  0.78580000  0.17360000  0.85150000  1
  O  O1091  1  0.78580000  0.32640000  0.35150000  1
  O  O1092  1  0.78674000  0.69832000  0.76193000  1
  O  O1093  1  0.78674000  0.80168000  0.26193000  1
  O  O1094  1  0.78942000  0.14426000  0.32812000  1
  O  O1095  1  0.78942000  0.35574000  0.82812000  1
  O  O1096  1  0.79996000  0.70004000  0.29996000  1
  O  O1097  1  0.79996000  0.79996000  0.79996000  1
  O  O1098  1  0.80168000  0.23807000  0.28674000  1
  O  O1099  1  0.80168000  0.26193000  0.78674000  1
  O  O1100  1  0.81346000  0.60155000  0.34167000  1
  O  O1101  1  0.81346000  0.89845000  0.84167000  1
  O  O1102  1  0.82640000  0.14850000  0.21420000  1
  O  O1103  1  0.82640000  0.35150000  0.71420000  1
  O  O1104  1  0.82812000  0.71058000  0.85574000  1
  O  O1105  1  0.82812000  0.78942000  0.35574000  1
  O  O1106  1  0.84167000  0.68654000  0.39845000  1
  O  O1107  1  0.84167000  0.81346000  0.89845000  1
  O  O1108  1  0.85150000  0.71420000  0.67360000  1
  O  O1109  1  0.85150000  0.78580000  0.17360000  1
  O  O1110  1  0.85390000  0.21710000  0.87740000  1
  O  O1111  1  0.85390000  0.28290000  0.37740000  1
  O  O1112  1  0.85574000  0.67188000  0.21058000  1
  O  O1113  1  0.85574000  0.82812000  0.71058000  1
  O  O1114  1  0.87740000  0.64610000  0.71710000  1
  O  O1115  1  0.87740000  0.85390000  0.21710000  1
  O  O1116  1  0.88611000  0.74095000  0.77425000  1
  O  O1117  1  0.88611000  0.75905000  0.27425000  1
  O  O1118  1  0.89845000  0.65833000  0.31346000  1
  O  O1119  1  0.89845000  0.84167000  0.81346000  1
