# generated using pymatgen
data_MnH16C19O5
_symmetry_space_group_name_H-M   'P 1'
_cell_length_a   13.06650000
_cell_length_b   33.41240000
_cell_length_c   33.41240000
_cell_angle_alpha   90.00000000
_cell_angle_beta   90.00000000
_cell_angle_gamma   90.00000000
_symmetry_Int_Tables_number   1
_chemical_formula_structural   MnH16C19O5
_chemical_formula_sum   'Mn16 H256 C304 O80'
_cell_volume   14587.28999239
_cell_formula_units_Z   16
loop_
 _symmetry_equiv_pos_site_id
 _symmetry_equiv_pos_as_xyz
  1  'x, y, z'
loop_
 _atom_site_type_symbol
 _atom_site_label
 _atom_site_symmetry_multiplicity
 _atom_site_fract_x
 _atom_site_fract_y
 _atom_site_fract_z
 _atom_site_occupancy
  Mn  Mn0  1  0.50303000  0.15624000  0.77680000  1
  Mn  Mn1  1  0.75000000  0.15725000  0.84275000  1
  Mn  Mn2  1  0.99697000  0.22320000  0.84376000  1
  Mn  Mn3  1  0.00000000  0.23341000  0.23341000  1
  Mn  Mn4  1  0.25000000  0.26659000  0.73341000  1
  Mn  Mn5  1  0.25303000  0.27680000  0.34376000  1
  Mn  Mn6  1  0.50000000  0.34275000  0.34275000  1
  Mn  Mn7  1  0.74697000  0.34376000  0.27680000  1
  Mn  Mn8  1  0.24697000  0.65624000  0.72320000  1
  Mn  Mn9  1  0.00000000  0.65725000  0.65725000  1
  Mn  Mn10  1  0.75303000  0.72320000  0.65624000  1
  Mn  Mn11  1  0.75000000  0.73341000  0.26659000  1
  Mn  Mn12  1  0.50000000  0.76659000  0.76659000  1
  Mn  Mn13  1  0.49697000  0.77680000  0.15624000  1
  Mn  Mn14  1  0.25000000  0.84275000  0.15725000  1
  Mn  Mn15  1  0.00303000  0.84376000  0.22320000  1
  H  H16  1  0.84380000  0.00110000  0.57020000  1
  H  H17  1  0.74010000  0.00590000  0.30410000  1
  H  H18  1  0.16060000  0.00990000  0.37780000  1
  H  H19  1  0.21640000  0.01350000  0.33530000  1
  H  H20  1  0.90760000  0.01610000  0.38200000  1
  H  H21  1  0.19560000  0.01990000  0.73230000  1
  H  H22  1  0.66850000  0.02670000  0.27120000  1
  H  H23  1  0.74420000  0.02870000  0.56660000  1
  H  H24  1  0.80910000  0.03020000  0.44560000  1
  H  H25  1  0.15980000  0.03620000  0.55040000  1
  H  H26  1  0.00610000  0.03700000  0.40140000  1
  H  H27  1  0.05450000  0.03730000  0.57490000  1
  H  H28  1  0.25970000  0.03760000  0.37310000  1
  H  H29  1  0.85430000  0.04870000  0.57300000  1
  H  H30  1  0.90980000  0.05040000  0.46380000  1
  H  H31  1  0.96370000  0.05180000  0.35890000  1
  H  H32  1  0.05910000  0.05440000  0.53020000  1
  H  H33  1  0.73090000  0.06140000  0.66530000  1
  H  H34  1  0.67760000  0.06320000  0.62230000  1
  H  H35  1  0.49420000  0.06660000  0.47130000  1
  H  H36  1  0.89190000  0.06960000  0.67950000  1
  H  H37  1  0.59380000  0.07020000  0.49890000  1
  H  H38  1  0.24790000  0.07150000  0.60280000  1
  H  H39  1  0.14500000  0.07240000  0.62880000  1
  H  H40  1  0.60430000  0.07300000  0.45130000  1
  H  H41  1  0.80450000  0.07490000  0.46270000  1
  H  H42  1  0.20610000  0.07740000  0.70170000  1
  H  H43  1  0.92630000  0.08110000  0.75400000  1
  H  H44  1  0.51550000  0.08380000  0.28370000  1
  H  H45  1  0.78610000  0.08440000  0.62930000  1
  H  H46  1  0.44470000  0.09140000  0.32210000  1
  H  H47  1  0.25610000  0.09860000  0.53700000  1
  H  H48  1  0.99790000  0.10280000  0.42850000  1
  H  H49  1  0.20650000  0.11300000  0.62040000  1
  H  H50  1  0.15760000  0.11800000  0.51610000  1
  H  H51  1  0.95650000  0.12040000  0.38700000  1
  H  H52  1  0.41060000  0.12220000  0.50990000  1
  H  H53  1  0.42760000  0.12230000  0.43680000  1
  H  H54  1  0.04820000  0.12600000  0.63940000  1
  H  H55  1  0.50970000  0.12690000  0.53760000  1
  H  H56  1  0.50150000  0.12810000  0.30090000  1
  H  H57  1  0.89500000  0.12880000  0.42760000  1
  H  H58  1  0.53610000  0.12930000  0.41560000  1
  H  H59  1  0.79820000  0.13940000  0.37400000  1
  H  H60  1  0.21370000  0.14110000  0.55180000  1
  H  H61  1  0.75590000  0.14300000  0.67240000  1
  H  H62  1  0.15550000  0.15130000  0.79590000  1
  H  H63  1  0.46640000  0.16470000  0.51350000  1
  H  H64  1  0.48090000  0.16530000  0.43860000  1
  H  H65  1  0.50590000  0.17240000  0.35700000  1
  H  H66  1  0.78100000  0.17390000  0.30100000  1
  H  H67  1  0.69470000  0.17790000  0.59140000  1
  H  H68  1  0.64190000  0.17950000  0.43040000  1
  H  H69  1  0.99010000  0.19590000  0.50590000  1
  H  H70  1  0.03100000  0.19900000  0.67390000  1
  H  H71  1  0.75150000  0.19910000  0.62810000  1
  H  H72  1  0.95610000  0.20170000  0.42260000  1
  H  H73  1  0.84630000  0.20390000  0.77120000  1
  H  H74  1  0.34450000  0.20410000  0.84870000  1
  H  H75  1  0.76550000  0.21630000  0.58380000  1
  H  H76  1  0.91850000  0.22880000  0.52670000  1
  H  H77  1  0.65370000  0.22880000  0.79610000  1
  H  H78  1  0.94560000  0.23230000  0.48010000  1
  H  H79  1  0.57370000  0.24600000  0.91890000  1
  H  H80  1  0.67630000  0.25400000  0.41890000  1
  H  H81  1  0.30440000  0.26770000  0.98010000  1
  H  H82  1  0.33150000  0.27120000  0.02670000  1
  H  H83  1  0.59630000  0.27120000  0.29610000  1
  H  H84  1  0.48450000  0.28370000  0.08380000  1
  H  H85  1  0.90550000  0.29590000  0.34870000  1
  H  H86  1  0.40370000  0.29610000  0.27120000  1
  H  H87  1  0.29390000  0.29830000  0.92260000  1
  H  H88  1  0.49850000  0.30090000  0.12810000  1
  H  H89  1  0.21900000  0.30100000  0.17390000  1
  H  H90  1  0.25990000  0.30410000  0.00590000  1
  H  H91  1  0.60810000  0.32050000  0.93040000  1
  H  H92  1  0.55530000  0.32210000  0.09140000  1
  H  H93  1  0.46900000  0.32610000  0.80100000  1
  H  H94  1  0.74410000  0.32760000  0.85700000  1
  H  H95  1  0.76910000  0.33470000  0.93860000  1
  H  H96  1  0.78360000  0.33530000  0.01350000  1
  H  H97  1  0.09450000  0.34870000  0.29590000  1
  H  H98  1  0.49410000  0.35700000  0.17240000  1
  H  H99  1  0.03630000  0.35890000  0.05180000  1
  H  H100  1  0.45180000  0.36060000  0.87400000  1
  H  H101  1  0.71390000  0.37070000  0.91560000  1
  H  H102  1  0.35500000  0.37120000  0.92760000  1
  H  H103  1  0.74850000  0.37190000  0.80090000  1
  H  H104  1  0.74030000  0.37310000  0.03760000  1
  H  H105  1  0.20180000  0.37400000  0.13940000  1
  H  H106  1  0.82240000  0.37770000  0.93680000  1
  H  H107  1  0.83940000  0.37780000  0.00990000  1
  H  H108  1  0.29350000  0.37960000  0.88700000  1
  H  H109  1  0.09240000  0.38200000  0.01610000  1
  H  H110  1  0.04350000  0.38700000  0.12040000  1
  H  H111  1  0.25210000  0.39720000  0.92850000  1
  H  H112  1  0.99390000  0.40140000  0.03700000  1
  H  H113  1  0.80530000  0.40860000  0.82210000  1
  H  H114  1  0.46390000  0.41560000  0.12930000  1
  H  H115  1  0.73450000  0.41620000  0.78370000  1
  H  H116  1  0.32370000  0.41890000  0.25400000  1
  H  H117  1  0.04390000  0.42260000  0.20170000  1
  H  H118  1  0.44550000  0.42510000  0.96270000  1
  H  H119  1  0.64570000  0.42700000  0.95130000  1
  H  H120  1  0.10500000  0.42760000  0.12880000  1
  H  H121  1  0.00210000  0.42850000  0.10280000  1
  H  H122  1  0.65620000  0.42980000  0.99890000  1
  H  H123  1  0.35810000  0.43040000  0.17950000  1
  H  H124  1  0.75580000  0.43340000  0.97130000  1
  H  H125  1  0.57240000  0.43680000  0.12230000  1
  H  H126  1  0.51910000  0.43860000  0.16530000  1
  H  H127  1  0.19090000  0.44560000  0.03020000  1
  H  H128  1  0.28630000  0.44820000  0.85890000  1
  H  H129  1  0.34020000  0.44960000  0.96380000  1
  H  H130  1  0.39570000  0.45130000  0.07300000  1
  H  H131  1  0.99030000  0.46240000  0.87310000  1
  H  H132  1  0.19550000  0.46270000  0.07490000  1
  H  H133  1  0.24390000  0.46300000  0.90140000  1
  H  H134  1  0.09020000  0.46380000  0.05040000  1
  H  H135  1  0.44090000  0.46980000  0.94560000  1
  H  H136  1  0.50580000  0.47130000  0.06660000  1
  H  H137  1  0.58150000  0.47330000  0.77120000  1
  H  H138  1  0.05440000  0.48010000  0.23230000  1
  H  H139  1  0.34240000  0.48390000  0.88200000  1
  H  H140  1  0.03360000  0.48650000  0.83530000  1
  H  H141  1  0.08940000  0.49010000  0.87780000  1
  H  H142  1  0.50990000  0.49410000  0.80410000  1
  H  H143  1  0.40620000  0.49890000  0.07020000  1
  H  H144  1  0.90620000  0.50110000  0.92980000  1
  H  H145  1  0.00990000  0.50590000  0.19590000  1
  H  H146  1  0.58940000  0.50990000  0.12220000  1
  H  H147  1  0.53360000  0.51350000  0.16470000  1
  H  H148  1  0.84240000  0.51610000  0.11800000  1
  H  H149  1  0.55440000  0.51990000  0.76770000  1
  H  H150  1  0.08150000  0.52670000  0.22880000  1
  H  H151  1  0.00580000  0.52870000  0.93340000  1
  H  H152  1  0.94090000  0.53020000  0.05440000  1
  H  H153  1  0.59020000  0.53620000  0.94960000  1
  H  H154  1  0.74390000  0.53700000  0.09860000  1
  H  H155  1  0.69550000  0.53730000  0.92510000  1
  H  H156  1  0.49030000  0.53760000  0.12690000  1
  H  H157  1  0.89570000  0.54870000  0.92700000  1
  H  H158  1  0.84020000  0.55040000  0.03620000  1
  H  H159  1  0.78630000  0.55180000  0.14110000  1
  H  H160  1  0.69090000  0.55440000  0.96980000  1
  H  H161  1  0.01910000  0.56140000  0.83470000  1
  H  H162  1  0.07240000  0.56320000  0.87770000  1
  H  H163  1  0.25580000  0.56660000  0.02870000  1
  H  H164  1  0.85810000  0.56960000  0.82050000  1
  H  H165  1  0.15620000  0.57020000  0.00110000  1
  H  H166  1  0.50210000  0.57150000  0.89720000  1
  H  H167  1  0.60500000  0.57240000  0.87120000  1
  H  H168  1  0.14570000  0.57300000  0.04870000  1
  H  H169  1  0.94550000  0.57490000  0.03730000  1
  H  H170  1  0.54390000  0.57740000  0.79830000  1
  H  H171  1  0.82370000  0.58110000  0.74600000  1
  H  H172  1  0.23450000  0.58380000  0.21630000  1
  H  H173  1  0.96390000  0.58440000  0.87070000  1
  H  H174  1  0.30530000  0.59140000  0.17790000  1
  H  H175  1  0.49390000  0.59860000  0.96300000  1
  H  H176  1  0.75210000  0.60280000  0.07150000  1
  H  H177  1  0.54350000  0.61300000  0.87960000  1
  H  H178  1  0.59240000  0.61800000  0.98390000  1
  H  H179  1  0.79350000  0.62040000  0.11300000  1
  H  H180  1  0.33940000  0.62220000  0.99010000  1
  H  H181  1  0.32240000  0.62230000  0.06320000  1
  H  H182  1  0.70180000  0.62600000  0.86060000  1
  H  H183  1  0.24030000  0.62690000  0.96240000  1
  H  H184  1  0.24850000  0.62810000  0.19910000  1
  H  H185  1  0.85500000  0.62880000  0.07240000  1
  H  H186  1  0.21390000  0.62930000  0.08440000  1
  H  H187  1  0.95180000  0.63940000  0.12600000  1
  H  H188  1  0.53630000  0.64110000  0.94820000  1
  H  H189  1  0.99410000  0.64300000  0.82760000  1
  H  H190  1  0.59450000  0.65130000  0.70410000  1
  H  H191  1  0.28360000  0.66470000  0.98650000  1
  H  H192  1  0.26910000  0.66530000  0.06140000  1
  H  H193  1  0.24410000  0.67240000  0.14300000  1
  H  H194  1  0.96900000  0.67390000  0.19900000  1
  H  H195  1  0.05530000  0.67790000  0.90860000  1
  H  H196  1  0.10810000  0.67950000  0.06960000  1
  H  H197  1  0.75990000  0.69590000  0.99410000  1
  H  H198  1  0.71900000  0.69900000  0.82610000  1
  H  H199  1  0.99850000  0.69910000  0.87190000  1
  H  H200  1  0.79390000  0.70170000  0.07740000  1
  H  H201  1  0.90370000  0.70390000  0.72880000  1
  H  H202  1  0.40550000  0.70410000  0.65130000  1
  H  H203  1  0.98450000  0.71630000  0.91620000  1
  H  H204  1  0.09630000  0.72880000  0.70390000  1
  H  H205  1  0.83150000  0.72880000  0.97330000  1
  H  H206  1  0.80440000  0.73230000  0.01990000  1
  H  H207  1  0.17630000  0.74600000  0.58110000  1
  H  H208  1  0.07370000  0.75400000  0.08110000  1
  H  H209  1  0.44560000  0.76770000  0.51990000  1
  H  H210  1  0.15370000  0.77120000  0.20390000  1
  H  H211  1  0.41850000  0.77120000  0.47330000  1
  H  H212  1  0.26550000  0.78370000  0.41620000  1
  H  H213  1  0.84450000  0.79590000  0.15130000  1
  H  H214  1  0.34630000  0.79610000  0.22880000  1
  H  H215  1  0.45610000  0.79830000  0.57740000  1
  H  H216  1  0.25150000  0.80090000  0.37190000  1
  H  H217  1  0.53100000  0.80100000  0.32610000  1
  H  H218  1  0.49010000  0.80410000  0.49410000  1
  H  H219  1  0.14190000  0.82050000  0.56960000  1
  H  H220  1  0.19470000  0.82210000  0.40860000  1
  H  H221  1  0.28100000  0.82610000  0.69900000  1
  H  H222  1  0.00590000  0.82760000  0.64300000  1
  H  H223  1  0.98090000  0.83470000  0.56140000  1
  H  H224  1  0.96640000  0.83530000  0.48650000  1
  H  H225  1  0.65550000  0.84870000  0.20410000  1
  H  H226  1  0.25590000  0.85700000  0.32760000  1
  H  H227  1  0.71370000  0.85890000  0.44820000  1
  H  H228  1  0.29820000  0.86060000  0.62600000  1
  H  H229  1  0.03610000  0.87070000  0.58440000  1
  H  H230  1  0.39500000  0.87120000  0.57240000  1
  H  H231  1  0.00150000  0.87190000  0.69910000  1
  H  H232  1  0.00970000  0.87310000  0.46240000  1
  H  H233  1  0.54820000  0.87400000  0.36060000  1
  H  H234  1  0.92760000  0.87770000  0.56320000  1
  H  H235  1  0.91060000  0.87780000  0.49010000  1
  H  H236  1  0.45650000  0.87960000  0.61300000  1
  H  H237  1  0.65760000  0.88200000  0.48390000  1
  H  H238  1  0.70650000  0.88700000  0.37960000  1
  H  H239  1  0.49790000  0.89720000  0.57150000  1
  H  H240  1  0.75610000  0.90140000  0.46300000  1
  H  H241  1  0.94470000  0.90860000  0.67790000  1
  H  H242  1  0.28610000  0.91560000  0.37070000  1
  H  H243  1  0.01550000  0.91620000  0.71630000  1
  H  H244  1  0.42630000  0.91890000  0.24600000  1
  H  H245  1  0.70610000  0.92260000  0.29830000  1
  H  H246  1  0.30450000  0.92510000  0.53730000  1
  H  H247  1  0.10430000  0.92700000  0.54870000  1
  H  H248  1  0.64500000  0.92760000  0.37120000  1
  H  H249  1  0.74790000  0.92850000  0.39720000  1
  H  H250  1  0.09380000  0.92980000  0.50110000  1
  H  H251  1  0.39190000  0.93040000  0.32050000  1
  H  H252  1  0.99420000  0.93340000  0.52870000  1
  H  H253  1  0.17760000  0.93680000  0.37770000  1
  H  H254  1  0.23090000  0.93860000  0.33470000  1
  H  H255  1  0.55910000  0.94560000  0.46980000  1
  H  H256  1  0.46370000  0.94820000  0.64110000  1
  H  H257  1  0.40980000  0.94960000  0.53620000  1
  H  H258  1  0.35430000  0.95130000  0.42700000  1
  H  H259  1  0.75970000  0.96240000  0.62690000  1
  H  H260  1  0.55450000  0.96270000  0.42510000  1
  H  H261  1  0.50610000  0.96300000  0.59860000  1
  H  H262  1  0.65980000  0.96380000  0.44960000  1
  H  H263  1  0.30910000  0.96980000  0.55440000  1
  H  H264  1  0.24420000  0.97130000  0.43340000  1
  H  H265  1  0.16850000  0.97330000  0.72880000  1
  H  H266  1  0.69560000  0.98010000  0.26770000  1
  H  H267  1  0.40760000  0.98390000  0.61800000  1
  H  H268  1  0.71640000  0.98650000  0.66470000  1
  H  H269  1  0.66060000  0.99010000  0.62220000  1
  H  H270  1  0.24010000  0.99410000  0.69590000  1
  H  H271  1  0.34380000  0.99890000  0.42980000  1
  C  C272  1  0.68120000  0.00210000  0.28630000  1
  C  C273  1  0.08530000  0.00838000  0.68832000  1
  C  C274  1  0.22690000  0.01270000  0.36440000  1
  C  C275  1  0.46360000  0.01504000  0.36045000  1
  C  C276  1  0.90290000  0.01837000  0.64667000  1
  C  C277  1  0.55480000  0.02003000  0.33963000  1
  C  C278  1  0.79650000  0.02350000  0.62470000  1
  C  C279  1  0.81100000  0.02570000  0.57960000  1
  C  C280  1  0.94440000  0.04140000  0.38530000  1
  C  C281  1  0.02450000  0.04179000  0.69545000  1
  C  C282  1  0.93330000  0.04679000  0.67462000  1
  C  C283  1  0.70850000  0.04819000  0.37227000  1
  C  C284  1  0.09700000  0.05150000  0.55530000  1
  C  C285  1  0.62150000  0.05522000  0.34938000  1
  C  C286  1  0.84700000  0.05530000  0.44850000  1
  C  C287  1  0.74320000  0.06140000  0.63640000  1
  C  C288  1  0.87510000  0.07180000  0.40650000  1
  C  C289  1  0.06060000  0.07478000  0.72357000  1
  C  C290  1  0.77440000  0.07955000  0.38143000  1
  C  C291  1  0.56100000  0.07960000  0.47430000  1
  C  C292  1  0.18640000  0.08700000  0.60920000  1
  C  C293  1  0.16140000  0.08794000  0.72153000  1
  C  C294  1  0.99520000  0.09013000  0.75256000  1
  C  C295  1  0.12510000  0.09350000  0.57180000  1
  C  C296  1  0.60040000  0.09362000  0.33566000  1
  C  C297  1  0.50700000  0.09980000  0.30810000  1
  C  C298  1  0.93640000  0.10920000  0.41300000  1
  C  C299  1  0.19440000  0.11470000  0.54140000  1
  C  C300  1  0.19680000  0.11644000  0.74849000  1
  C  C301  1  0.75320000  0.11794000  0.36770000  1
  C  C302  1  0.02440000  0.11857000  0.57955000  1
  C  C303  1  0.03060000  0.11863000  0.77952000  1
  C  C304  1  0.54650000  0.12470000  0.47650000  1
  C  C305  1  0.66620000  0.12498000  0.34482000  1
  C  C306  1  0.31040000  0.12700000  0.74450000  1
  C  C307  1  0.95850000  0.12773000  0.54819000  1
  C  C308  1  0.13130000  0.13179000  0.77748000  1
  C  C309  1  0.00320000  0.13230000  0.61794000  1
  C  C310  1  0.47690000  0.13560000  0.51270000  1
  C  C311  1  0.96030000  0.13580000  0.81000000  1
  C  C312  1  0.49320000  0.13640000  0.43860000  1
  C  C313  1  0.71360000  0.13955000  0.51504000  1
  C  C314  1  0.65290000  0.14667000  0.48163000  1
  C  C315  1  0.87150000  0.15062000  0.55522000  1
  C  C316  1  0.91620000  0.15518000  0.62498000  1
  C  C317  1  0.80530000  0.15881000  0.68599000  1
  C  C318  1  0.69130000  0.16020000  0.74510000  1
  C  C319  1  0.80480000  0.16037000  0.52003000  1
  C  C320  1  0.85040000  0.16434000  0.59362000  1
  C  C321  1  0.64640000  0.16701000  0.33106000  1
  C  C322  1  0.89640000  0.16894000  0.66701000  1
  C  C323  1  0.78670000  0.17183000  0.72482000  1
  C  C324  1  0.68330000  0.17462000  0.45321000  1
  C  C325  1  0.55530000  0.18599000  0.34119000  1
  C  C326  1  0.71880000  0.18685000  0.30792000  1
  C  C327  1  0.83530000  0.18832000  0.49162000  1
  C  C328  1  0.53970000  0.19000000  0.86420000  1
  C  C329  1  0.75700000  0.19190000  0.59980000  1
  C  C330  1  0.96880000  0.19208000  0.68685000  1
  C  C331  1  0.85900000  0.19497000  0.74467000  1
  C  C332  1  0.77450000  0.19545000  0.45821000  1
  C  C333  1  0.95010000  0.20510000  0.72569000  1
  C  C334  1  0.93120000  0.21370000  0.50210000  1
  C  C335  1  0.46940000  0.22048000  0.88137000  1
  C  C336  1  0.91140000  0.22153000  0.41206000  1
  C  C337  1  0.36870000  0.22252000  0.86821000  1
  C  C338  1  0.81060000  0.22357000  0.42522000  1
  C  C339  1  0.53670000  0.22482000  0.32817000  1
  C  C340  1  0.70010000  0.22569000  0.29490000  1
  C  C341  1  0.02300000  0.23320000  0.74580000  1
  C  C342  1  0.06040000  0.24450000  0.37300000  1
  C  C343  1  0.60900000  0.24467000  0.30503000  1
  C  C344  1  0.44130000  0.24510000  0.33980000  1
  C  C345  1  0.77300000  0.24580000  0.26680000  1
  C  C346  1  0.50480000  0.24744000  0.90987000  1
  C  C347  1  0.94680000  0.24849000  0.38356000  1
  C  C348  1  0.30320000  0.25151000  0.88356000  1
  C  C349  1  0.74520000  0.25256000  0.40987000  1
  C  C350  1  0.47700000  0.25420000  0.76680000  1
  C  C351  1  0.80870000  0.25490000  0.83980000  1
  C  C352  1  0.64100000  0.25533000  0.80503000  1
  C  C353  1  0.18960000  0.25550000  0.87300000  1
  C  C354  1  0.22700000  0.26680000  0.24580000  1
  C  C355  1  0.54990000  0.27431000  0.79490000  1
  C  C356  1  0.71330000  0.27518000  0.82817000  1
  C  C357  1  0.43940000  0.27643000  0.92522000  1
  C  C358  1  0.88130000  0.27748000  0.36821000  1
  C  C359  1  0.33860000  0.27847000  0.91206000  1
  C  C360  1  0.78060000  0.27952000  0.38137000  1
  C  C361  1  0.31880000  0.28630000  0.00210000  1
  C  C362  1  0.29990000  0.29490000  0.22569000  1
  C  C363  1  0.47550000  0.30455000  0.95821000  1
  C  C364  1  0.39100000  0.30503000  0.24467000  1
  C  C365  1  0.28120000  0.30792000  0.18685000  1
  C  C366  1  0.49300000  0.30810000  0.09980000  1
  C  C367  1  0.71030000  0.31000000  0.36420000  1
  C  C368  1  0.41470000  0.31168000  0.99162000  1
  C  C369  1  0.53120000  0.31315000  0.80792000  1
  C  C370  1  0.69470000  0.31401000  0.84119000  1
  C  C371  1  0.56670000  0.32538000  0.95321000  1
  C  C372  1  0.46330000  0.32817000  0.22482000  1
  C  C373  1  0.35360000  0.33106000  0.16701000  1
  C  C374  1  0.60360000  0.33299000  0.83106000  1
  C  C375  1  0.39960000  0.33566000  0.09362000  1
  C  C376  1  0.44520000  0.33963000  0.02003000  1
  C  C377  1  0.55870000  0.33980000  0.24510000  1
  C  C378  1  0.44470000  0.34119000  0.18599000  1
  C  C379  1  0.33380000  0.34482000  0.12498000  1
  C  C380  1  0.37850000  0.34938000  0.05522000  1
  C  C381  1  0.59710000  0.35333000  0.98163000  1
  C  C382  1  0.53640000  0.36045000  0.01504000  1
  C  C383  1  0.75680000  0.36360000  0.93860000  1
  C  C384  1  0.28970000  0.36420000  0.31000000  1
  C  C385  1  0.77310000  0.36440000  0.01270000  1
  C  C386  1  0.24680000  0.36770000  0.11794000  1
  C  C387  1  0.11870000  0.36821000  0.27748000  1
  C  C388  1  0.29150000  0.37227000  0.04819000  1
  C  C389  1  0.93960000  0.37300000  0.24450000  1
  C  C390  1  0.58380000  0.37502000  0.84482000  1
  C  C391  1  0.70350000  0.37530000  0.97650000  1
  C  C392  1  0.21940000  0.38137000  0.27952000  1
  C  C393  1  0.22560000  0.38143000  0.07955000  1
  C  C394  1  0.49680000  0.38206000  0.86770000  1
  C  C395  1  0.05320000  0.38356000  0.24849000  1
  C  C396  1  0.05560000  0.38530000  0.04140000  1
  C  C397  1  0.31360000  0.39080000  0.91300000  1
  C  C398  1  0.74300000  0.40020000  0.80810000  1
  C  C399  1  0.64960000  0.40638000  0.83566000  1
  C  C400  1  0.12490000  0.40650000  0.07180000  1
  C  C401  1  0.25480000  0.40987000  0.25256000  1
  C  C402  1  0.08860000  0.41206000  0.22153000  1
  C  C403  1  0.06360000  0.41300000  0.10920000  1
  C  C404  1  0.68900000  0.42040000  0.97430000  1
  C  C405  1  0.47560000  0.42045000  0.88143000  1
  C  C406  1  0.18940000  0.42522000  0.22357000  1
  C  C407  1  0.37490000  0.42820000  0.90650000  1
  C  C408  1  0.50680000  0.43860000  0.13640000  1
  C  C409  1  0.40300000  0.44470000  0.94850000  1
  C  C410  1  0.62850000  0.44478000  0.84938000  1
  C  C411  1  0.15300000  0.44850000  0.05530000  1
  C  C412  1  0.54150000  0.45181000  0.87227000  1
  C  C413  1  0.31670000  0.45321000  0.17462000  1
  C  C414  1  0.22550000  0.45821000  0.19545000  1
  C  C415  1  0.30560000  0.45860000  0.88530000  1
  C  C416  1  0.43900000  0.47430000  0.07960000  1
  C  C417  1  0.45350000  0.47650000  0.12470000  1
  C  C418  1  0.69520000  0.47997000  0.83963000  1
  C  C419  1  0.34710000  0.48163000  0.14667000  1
  C  C420  1  0.78640000  0.48496000  0.86045000  1
  C  C421  1  0.02310000  0.48730000  0.86440000  1
  C  C422  1  0.16470000  0.49162000  0.18832000  1
  C  C423  1  0.56880000  0.49790000  0.78630000  1
  C  C424  1  0.06880000  0.50210000  0.21370000  1
  C  C425  1  0.66470000  0.50838000  0.81168000  1
  C  C426  1  0.52310000  0.51270000  0.13560000  1
  C  C427  1  0.28640000  0.51504000  0.13955000  1
  C  C428  1  0.84710000  0.51837000  0.85333000  1
  C  C429  1  0.19520000  0.52003000  0.16037000  1
  C  C430  1  0.95350000  0.52350000  0.87530000  1
  C  C431  1  0.93900000  0.52570000  0.92040000  1
  C  C432  1  0.80560000  0.54140000  0.11470000  1
  C  C433  1  0.72550000  0.54179000  0.80455000  1
  C  C434  1  0.81670000  0.54679000  0.82538000  1
  C  C435  1  0.04150000  0.54819000  0.12773000  1
  C  C436  1  0.65300000  0.55150000  0.94470000  1
  C  C437  1  0.12850000  0.55522000  0.15062000  1
  C  C438  1  0.90300000  0.55530000  0.05150000  1
  C  C439  1  0.00680000  0.56140000  0.86360000  1
  C  C440  1  0.87490000  0.57180000  0.09350000  1
  C  C441  1  0.68940000  0.57478000  0.77643000  1
  C  C442  1  0.97560000  0.57955000  0.11857000  1
  C  C443  1  0.18900000  0.57960000  0.02570000  1
  C  C444  1  0.56360000  0.58700000  0.89080000  1
  C  C445  1  0.58860000  0.58794000  0.77847000  1
  C  C446  1  0.75480000  0.59013000  0.74744000  1
  C  C447  1  0.62490000  0.59350000  0.92820000  1
  C  C448  1  0.14960000  0.59362000  0.16434000  1
  C  C449  1  0.24300000  0.59980000  0.19190000  1
  C  C450  1  0.81360000  0.60920000  0.08700000  1
  C  C451  1  0.55560000  0.61470000  0.95860000  1
  C  C452  1  0.55320000  0.61644000  0.75151000  1
  C  C453  1  0.99680000  0.61794000  0.13230000  1
  C  C454  1  0.72560000  0.61857000  0.92045000  1
  C  C455  1  0.71940000  0.61863000  0.72048000  1
  C  C456  1  0.20350000  0.62470000  0.02350000  1
  C  C457  1  0.08380000  0.62498000  0.15518000  1
  C  C458  1  0.43960000  0.62700000  0.75550000  1
  C  C459  1  0.79150000  0.62773000  0.95181000  1
  C  C460  1  0.61870000  0.63179000  0.72252000  1
  C  C461  1  0.74680000  0.63230000  0.88206000  1
  C  C462  1  0.27310000  0.63560000  0.98730000  1
  C  C463  1  0.78970000  0.63580000  0.69000000  1
  C  C464  1  0.25680000  0.63640000  0.06140000  1
  C  C465  1  0.03640000  0.63955000  0.98496000  1
  C  C466  1  0.09710000  0.64667000  0.01837000  1
  C  C467  1  0.87850000  0.65062000  0.94478000  1
  C  C468  1  0.83380000  0.65518000  0.87502000  1
  C  C469  1  0.94470000  0.65881000  0.81401000  1
  C  C470  1  0.05870000  0.66020000  0.75490000  1
  C  C471  1  0.94520000  0.66037000  0.97997000  1
  C  C472  1  0.89960000  0.66434000  0.90638000  1
  C  C473  1  0.10360000  0.66701000  0.16894000  1
  C  C474  1  0.85360000  0.66894000  0.83299000  1
  C  C475  1  0.96330000  0.67183000  0.77518000  1
  C  C476  1  0.06670000  0.67462000  0.04679000  1
  C  C477  1  0.19470000  0.68599000  0.15881000  1
  C  C478  1  0.03120000  0.68685000  0.19208000  1
  C  C479  1  0.91470000  0.68832000  0.00838000  1
  C  C480  1  0.21030000  0.69000000  0.63580000  1
  C  C481  1  0.99300000  0.69190000  0.90020000  1
  C  C482  1  0.78120000  0.69208000  0.81315000  1
  C  C483  1  0.89100000  0.69497000  0.75533000  1
  C  C484  1  0.97550000  0.69545000  0.04179000  1
  C  C485  1  0.79990000  0.70510000  0.77431000  1
  C  C486  1  0.81880000  0.71370000  0.99790000  1
  C  C487  1  0.28060000  0.72048000  0.61863000  1
  C  C488  1  0.83860000  0.72153000  0.08794000  1
  C  C489  1  0.38130000  0.72252000  0.63179000  1
  C  C490  1  0.93940000  0.72357000  0.07478000  1
  C  C491  1  0.21330000  0.72482000  0.17183000  1
  C  C492  1  0.04990000  0.72569000  0.20510000  1
  C  C493  1  0.72700000  0.73320000  0.75420000  1
  C  C494  1  0.68960000  0.74450000  0.12700000  1
  C  C495  1  0.14100000  0.74467000  0.19497000  1
  C  C496  1  0.30870000  0.74510000  0.16020000  1
  C  C497  1  0.97700000  0.74580000  0.23320000  1
  C  C498  1  0.24520000  0.74744000  0.59013000  1
  C  C499  1  0.80320000  0.74849000  0.11644000  1
  C  C500  1  0.44680000  0.75151000  0.61644000  1
  C  C501  1  0.00480000  0.75256000  0.09013000  1
  C  C502  1  0.27300000  0.75420000  0.73320000  1
  C  C503  1  0.94130000  0.75490000  0.66020000  1
  C  C504  1  0.10900000  0.75533000  0.69497000  1
  C  C505  1  0.56040000  0.75550000  0.62700000  1
  C  C506  1  0.52300000  0.76680000  0.25420000  1
  C  C507  1  0.20010000  0.77431000  0.70510000  1
  C  C508  1  0.03670000  0.77518000  0.67183000  1
  C  C509  1  0.31060000  0.77643000  0.57478000  1
  C  C510  1  0.86870000  0.77748000  0.13179000  1
  C  C511  1  0.41140000  0.77847000  0.58794000  1
  C  C512  1  0.96940000  0.77952000  0.11863000  1
  C  C513  1  0.43120000  0.78630000  0.49790000  1
  C  C514  1  0.45010000  0.79490000  0.27431000  1
  C  C515  1  0.27450000  0.80455000  0.54179000  1
  C  C516  1  0.35900000  0.80503000  0.25533000  1
  C  C517  1  0.46880000  0.80792000  0.31315000  1
  C  C518  1  0.25700000  0.80810000  0.40020000  1
  C  C519  1  0.03970000  0.81000000  0.13580000  1
  C  C520  1  0.33530000  0.81168000  0.50838000  1
  C  C521  1  0.21880000  0.81315000  0.69208000  1
  C  C522  1  0.05530000  0.81401000  0.65881000  1
  C  C523  1  0.18330000  0.82538000  0.54679000  1
  C  C524  1  0.28670000  0.82817000  0.27518000  1
  C  C525  1  0.39640000  0.83106000  0.33299000  1
  C  C526  1  0.14640000  0.83299000  0.66894000  1
  C  C527  1  0.35040000  0.83566000  0.40638000  1
  C  C528  1  0.30480000  0.83963000  0.47997000  1
  C  C529  1  0.19130000  0.83980000  0.25490000  1
  C  C530  1  0.30530000  0.84119000  0.31401000  1
  C  C531  1  0.41620000  0.84482000  0.37502000  1
  C  C532  1  0.37150000  0.84938000  0.44478000  1
  C  C533  1  0.15290000  0.85333000  0.51837000  1
  C  C534  1  0.21360000  0.86045000  0.48496000  1
  C  C535  1  0.99320000  0.86360000  0.56140000  1
  C  C536  1  0.46030000  0.86420000  0.19000000  1
  C  C537  1  0.97690000  0.86440000  0.48730000  1
  C  C538  1  0.50320000  0.86770000  0.38206000  1
  C  C539  1  0.63130000  0.86821000  0.22252000  1
  C  C540  1  0.45850000  0.87227000  0.45181000  1
  C  C541  1  0.81040000  0.87300000  0.25550000  1
  C  C542  1  0.16620000  0.87502000  0.65518000  1
  C  C543  1  0.04650000  0.87530000  0.52350000  1
  C  C544  1  0.53060000  0.88137000  0.22048000  1
  C  C545  1  0.52440000  0.88143000  0.42045000  1
  C  C546  1  0.25320000  0.88206000  0.63230000  1
  C  C547  1  0.69680000  0.88356000  0.25151000  1
  C  C548  1  0.69440000  0.88530000  0.45860000  1
  C  C549  1  0.43640000  0.89080000  0.58700000  1
  C  C550  1  0.00700000  0.90020000  0.69190000  1
  C  C551  1  0.10040000  0.90638000  0.66434000  1
  C  C552  1  0.62510000  0.90650000  0.42820000  1
  C  C553  1  0.49520000  0.90987000  0.24744000  1
  C  C554  1  0.66140000  0.91206000  0.27847000  1
  C  C555  1  0.68640000  0.91300000  0.39080000  1
  C  C556  1  0.06100000  0.92040000  0.52570000  1
  C  C557  1  0.27440000  0.92045000  0.61857000  1
  C  C558  1  0.56060000  0.92522000  0.27643000  1
  C  C559  1  0.37510000  0.92820000  0.59350000  1
  C  C560  1  0.24320000  0.93860000  0.36360000  1
  C  C561  1  0.34700000  0.94470000  0.55150000  1
  C  C562  1  0.12150000  0.94478000  0.65062000  1
  C  C563  1  0.59700000  0.94850000  0.44470000  1
  C  C564  1  0.20850000  0.95181000  0.62773000  1
  C  C565  1  0.43330000  0.95321000  0.32538000  1
  C  C566  1  0.52450000  0.95821000  0.30455000  1
  C  C567  1  0.44440000  0.95860000  0.61470000  1
  C  C568  1  0.31100000  0.97430000  0.42040000  1
  C  C569  1  0.29650000  0.97650000  0.37530000  1
  C  C570  1  0.05480000  0.97997000  0.66037000  1
  C  C571  1  0.40290000  0.98163000  0.35333000  1
  C  C572  1  0.96360000  0.98496000  0.63955000  1
  C  C573  1  0.72690000  0.98730000  0.63560000  1
  C  C574  1  0.58530000  0.99162000  0.31168000  1
  C  C575  1  0.18120000  0.99790000  0.71370000  1
  O  O576  1  0.72840000  0.01065000  0.38600000  1
  O  O577  1  0.43520000  0.04296000  0.38822000  1
  O  O578  1  0.68520000  0.11178000  0.54296000  1
  O  O579  1  0.97840000  0.11400000  0.51065000  1
  O  O580  1  0.36290000  0.11450000  0.71790000  1
  O  O581  1  0.86910000  0.12582000  0.81188000  1
  O  O582  1  0.34220000  0.14938000  0.77360000  1
  O  O583  1  0.61230000  0.15012000  0.72441000  1
  O  O584  1  0.00140000  0.16244000  0.83560000  1
  O  O585  1  0.67890000  0.16351000  0.78286000  1
  O  O586  1  0.49860000  0.16440000  0.83756000  1
  O  O587  1  0.63090000  0.18812000  0.87418000  1
  O  O588  1  0.48530000  0.21692000  0.76019000  1
  O  O589  1  0.82110000  0.21714000  0.83649000  1
  O  O590  1  0.11290000  0.21790000  0.38550000  1
  O  O591  1  0.84200000  0.22338000  0.24984000  1
  O  O592  1  0.36230000  0.22441000  0.34988000  1
  O  O593  1  0.15780000  0.22640000  0.85062000  1
  O  O594  1  0.01470000  0.23981000  0.78308000  1
  O  O595  1  0.15800000  0.24984000  0.22338000  1
  O  O596  1  0.09200000  0.25016000  0.72338000  1
  O  O597  1  0.23530000  0.26019000  0.28308000  1
  O  O598  1  0.09220000  0.27360000  0.35062000  1
  O  O599  1  0.88770000  0.27559000  0.84988000  1
  O  O600  1  0.40800000  0.27662000  0.74984000  1
  O  O601  1  0.13710000  0.28210000  0.88550000  1
  O  O602  1  0.42890000  0.28286000  0.33649000  1
  O  O603  1  0.76470000  0.28308000  0.26019000  1
  O  O604  1  0.61910000  0.31188000  0.37418000  1
  O  O605  1  0.75140000  0.33560000  0.33756000  1
  O  O606  1  0.57110000  0.33649000  0.28286000  1
  O  O607  1  0.24860000  0.33756000  0.33560000  1
  O  O608  1  0.63770000  0.34988000  0.22441000  1
  O  O609  1  0.90780000  0.35062000  0.27360000  1
  O  O610  1  0.38090000  0.37418000  0.31188000  1
  O  O611  1  0.88710000  0.38550000  0.21790000  1
  O  O612  1  0.27160000  0.38600000  0.01065000  1
  O  O613  1  0.56480000  0.38822000  0.04296000  1
  O  O614  1  0.81480000  0.45704000  0.88822000  1
  O  O615  1  0.52160000  0.48935000  0.88600000  1
  O  O616  1  0.02160000  0.51065000  0.11400000  1
  O  O617  1  0.31480000  0.54296000  0.11178000  1
  O  O618  1  0.06480000  0.61178000  0.95704000  1
  O  O619  1  0.77160000  0.61400000  0.98935000  1
  O  O620  1  0.38710000  0.61450000  0.78210000  1
  O  O621  1  0.88090000  0.62582000  0.68812000  1
  O  O622  1  0.40780000  0.64938000  0.72640000  1
  O  O623  1  0.13770000  0.65012000  0.77559000  1
  O  O624  1  0.74860000  0.66244000  0.66440000  1
  O  O625  1  0.07110000  0.66351000  0.71714000  1
  O  O626  1  0.25140000  0.66440000  0.66244000  1
  O  O627  1  0.11910000  0.68812000  0.62582000  1
  O  O628  1  0.26470000  0.71692000  0.73981000  1
  O  O629  1  0.92890000  0.71714000  0.66351000  1
  O  O630  1  0.63710000  0.71790000  0.11450000  1
  O  O631  1  0.90800000  0.72338000  0.25016000  1
  O  O632  1  0.38770000  0.72441000  0.15012000  1
  O  O633  1  0.59220000  0.72640000  0.64938000  1
  O  O634  1  0.73530000  0.73981000  0.71692000  1
  O  O635  1  0.59200000  0.74984000  0.27662000  1
  O  O636  1  0.65800000  0.75016000  0.77662000  1
  O  O637  1  0.51470000  0.76019000  0.21692000  1
  O  O638  1  0.65780000  0.77360000  0.14938000  1
  O  O639  1  0.86230000  0.77559000  0.65012000  1
  O  O640  1  0.34200000  0.77662000  0.75016000  1
  O  O641  1  0.61290000  0.78210000  0.61450000  1
  O  O642  1  0.32110000  0.78286000  0.16351000  1
  O  O643  1  0.98530000  0.78308000  0.23981000  1
  O  O644  1  0.13090000  0.81188000  0.12582000  1
  O  O645  1  0.99860000  0.83560000  0.16244000  1
  O  O646  1  0.17890000  0.83649000  0.21714000  1
  O  O647  1  0.50140000  0.83756000  0.16440000  1
  O  O648  1  0.11230000  0.84988000  0.27559000  1
  O  O649  1  0.84220000  0.85062000  0.22640000  1
  O  O650  1  0.36910000  0.87418000  0.18812000  1
  O  O651  1  0.86290000  0.88550000  0.28210000  1
  O  O652  1  0.47840000  0.88600000  0.48935000  1
  O  O653  1  0.18520000  0.88822000  0.45704000  1
  O  O654  1  0.93520000  0.95704000  0.61178000  1
  O  O655  1  0.22840000  0.98935000  0.61400000  1
