# generated using pymatgen
data_La2Cu3H54C36(NO4)6
_symmetry_space_group_name_H-M   'P 1'
_cell_length_a   7.49350000
_cell_length_b   13.62240000
_cell_length_c   13.62240000
_cell_angle_alpha   120.00000000
_cell_angle_beta   90.00000000
_cell_angle_gamma   90.00000000
_symmetry_Int_Tables_number   1
_chemical_formula_structural   La2Cu3H54C36(NO4)6
_chemical_formula_sum   'La2 Cu3 H54 C36 N6 O24'
_cell_volume   1204.26648590
_cell_formula_units_Z   1
loop_
 _symmetry_equiv_pos_site_id
 _symmetry_equiv_pos_as_xyz
  1  'x, y, z'
loop_
 _atom_site_type_symbol
 _atom_site_label
 _atom_site_symmetry_multiplicity
 _atom_site_fract_x
 _atom_site_fract_y
 _atom_site_fract_z
 _atom_site_occupancy
  La  La0  1  0.34102000  0.66666667  0.33333333  1
  La  La1  1  0.65898000  0.33333333  0.66666667  1
  Cu  Cu2  1  0.00000000  0.50000000  0.50000000  1
  Cu  Cu3  1  0.00000000  1.00000000  0.50000000  1
  Cu  Cu4  1  0.00000000  0.50000000  1.00000000  1
  H  H5  1  0.01900000  0.20200000  0.98990000  1
  H  H6  1  0.01900000  0.01010000  0.21210000  1
  H  H7  1  0.01900000  0.78790000  0.79800000  1
  H  H8  1  0.04690000  0.14230000  0.80290000  1
  H  H9  1  0.04690000  0.66060000  0.85770000  1
  H  H10  1  0.04690000  0.19710000  0.33940000  1
  H  H11  1  0.13760000  0.86180000  0.76120000  1
  H  H12  1  0.13760000  0.23880000  0.10060000  1
  H  H13  1  0.13760000  0.89940000  0.13820000  1
  H  H14  1  0.13990000  0.35500000  0.32310000  1
  H  H15  1  0.13990000  0.96810000  0.64500000  1
  H  H16  1  0.13990000  0.67690000  0.03190000  1
  H  H17  1  0.20890000  0.74170000  0.73890000  1
  H  H18  1  0.20890000  0.26110000  0.00280000  1
  H  H19  1  0.20890000  0.99720000  0.25830000  1
  H  H20  1  0.23160000  0.18310000  0.73120000  1
  H  H21  1  0.23160000  0.54810000  0.81690000  1
  H  H22  1  0.23160000  0.26880000  0.45190000  1
  H  H23  1  0.35860000  0.06550000  0.78740000  1
  H  H24  1  0.35860000  0.72190000  0.93450000  1
  H  H25  1  0.35860000  0.21260000  0.27810000  1
  H  H26  1  0.45890000  0.33200000  0.32950000  1
  H  H27  1  0.45890000  0.99750000  0.66800000  1
  H  H28  1  0.45890000  0.67050000  0.00250000  1
  H  H29  1  0.49470000  0.75260000  0.62460000  1
  H  H30  1  0.49470000  0.37540000  0.12800000  1
  H  H31  1  0.49470000  0.87200000  0.24740000  1
  H  H32  1  0.50530000  0.12800000  0.75260000  1
  H  H33  1  0.50530000  0.62460000  0.87200000  1
  H  H34  1  0.50530000  0.24740000  0.37540000  1
  H  H35  1  0.54110000  0.32950000  0.99750000  1
  H  H36  1  0.54110000  0.00250000  0.33200000  1
  H  H37  1  0.54110000  0.66800000  0.67050000  1
  H  H38  1  0.64140000  0.78740000  0.72190000  1
  H  H39  1  0.64140000  0.27810000  0.06550000  1
  H  H40  1  0.64140000  0.93450000  0.21260000  1
  H  H41  1  0.76840000  0.73120000  0.54810000  1
  H  H42  1  0.76840000  0.45190000  0.18310000  1
  H  H43  1  0.76840000  0.81690000  0.26880000  1
  H  H44  1  0.79110000  0.00280000  0.74170000  1
  H  H45  1  0.79110000  0.73890000  0.99720000  1
  H  H46  1  0.79110000  0.25830000  0.26110000  1
  H  H47  1  0.86010000  0.32310000  0.96810000  1
  H  H48  1  0.86010000  0.03190000  0.35500000  1
  H  H49  1  0.86010000  0.64500000  0.67690000  1
  H  H50  1  0.86240000  0.10060000  0.86180000  1
  H  H51  1  0.86240000  0.76120000  0.89940000  1
  H  H52  1  0.86240000  0.13820000  0.23880000  1
  H  H53  1  0.95310000  0.80290000  0.66060000  1
  H  H54  1  0.95310000  0.33940000  0.14230000  1
  H  H55  1  0.95310000  0.85770000  0.19710000  1
  H  H56  1  0.98100000  0.21210000  0.20200000  1
  H  H57  1  0.98100000  0.98990000  0.78790000  1
  H  H58  1  0.98100000  0.79800000  0.01010000  1
  C  C59  1  0.03210000  0.73910000  0.64980000  1
  C  C60  1  0.03210000  0.35020000  0.08930000  1
  C  C61  1  0.03210000  0.91070000  0.26090000  1
  C  C62  1  0.10260000  0.78470000  0.74120000  1
  C  C63  1  0.10260000  0.25880000  0.04350000  1
  C  C64  1  0.10260000  0.95650000  0.21530000  1
  C  C65  1  0.13650000  0.72401000  0.54659000  1
  C  C66  1  0.13650000  0.45341000  0.17742000  1
  C  C67  1  0.13650000  0.82258000  0.27599000  1
  C  C68  1  0.26780000  0.10560000  0.67040000  1
  C  C69  1  0.26780000  0.56480000  0.89440000  1
  C  C70  1  0.26780000  0.32960000  0.43520000  1
  C  C71  1  0.31290000  0.12036000  0.57016000  1
  C  C72  1  0.31290000  0.44980000  0.87964000  1
  C  C73  1  0.31290000  0.42984000  0.55020000  1
  C  C74  1  0.40990000  0.07120000  0.72420000  1
  C  C75  1  0.40990000  0.65300000  0.92880000  1
  C  C76  1  0.40990000  0.27580000  0.34700000  1
  C  C77  1  0.59010000  0.72420000  0.65300000  1
  C  C78  1  0.59010000  0.34700000  0.07120000  1
  C  C79  1  0.59010000  0.92880000  0.27580000  1
  C  C80  1  0.68710000  0.57016000  0.44980000  1
  C  C81  1  0.68710000  0.55020000  0.12036000  1
  C  C82  1  0.68710000  0.87964000  0.42984000  1
  C  C83  1  0.73220000  0.67040000  0.56480000  1
  C  C84  1  0.73220000  0.43520000  0.10560000  1
  C  C85  1  0.73220000  0.89440000  0.32960000  1
  C  C86  1  0.86350000  0.17742000  0.72401000  1
  C  C87  1  0.86350000  0.54659000  0.82258000  1
  C  C88  1  0.86350000  0.27599000  0.45341000  1
  C  C89  1  0.89740000  0.04350000  0.78470000  1
  C  C90  1  0.89740000  0.74120000  0.95650000  1
  C  C91  1  0.89740000  0.21530000  0.25880000  1
  C  C92  1  0.96790000  0.08930000  0.73910000  1
  C  C93  1  0.96790000  0.64980000  0.91070000  1
  C  C94  1  0.96790000  0.26090000  0.35020000  1
  N  N95  1  0.10590000  0.03594000  0.64963000  1
  N  N96  1  0.10590000  0.61369000  0.96406000  1
  N  N97  1  0.10590000  0.35037000  0.38631000  1
  N  N98  1  0.89410000  0.64963000  0.61369000  1
  N  N99  1  0.89410000  0.38631000  0.03594000  1
  N  N100  1  0.89410000  0.96406000  0.35037000  1
  O  O101  1  0.11730000  0.63333000  0.45368000  1
  O  O102  1  0.11730000  0.54632000  0.17965000  1
  O  O103  1  0.11730000  0.82035000  0.36667000  1
  O  O104  1  0.21140000  0.40795000  0.92318000  1
  O  O105  1  0.21140000  0.07682000  0.48477000  1
  O  O106  1  0.21140000  0.51523000  0.59205000  1
  O  O107  1  0.24190000  0.44217000  0.24152000  1
  O  O108  1  0.24190000  0.79935000  0.55783000  1
  O  O109  1  0.24190000  0.75848000  0.20065000  1
  O  O110  1  0.44810000  0.40055000  0.82233000  1
  O  O111  1  0.44810000  0.17767000  0.57822000  1
  O  O112  1  0.44810000  0.42178000  0.59945000  1
  O  O113  1  0.55190000  0.57822000  0.40055000  1
  O  O114  1  0.55190000  0.82233000  0.42178000  1
  O  O115  1  0.55190000  0.59945000  0.17767000  1
  O  O116  1  0.75810000  0.24152000  0.79935000  1
  O  O117  1  0.75810000  0.20065000  0.44217000  1
  O  O118  1  0.75810000  0.55783000  0.75848000  1
  O  O119  1  0.78860000  0.48477000  0.40795000  1
  O  O120  1  0.78860000  0.92318000  0.51523000  1
  O  O121  1  0.78860000  0.59205000  0.07682000  1
  O  O122  1  0.88270000  0.17965000  0.63333000  1
  O  O123  1  0.88270000  0.45368000  0.82035000  1
  O  O124  1  0.88270000  0.36667000  0.54632000  1
