# generated using pymatgen
data_ZnH3C5BrN4
_symmetry_space_group_name_H-M   'P 1'
_cell_length_a   10.20900000
_cell_length_b   13.63600000
_cell_length_c   14.12400000
_cell_angle_alpha   91.56800000
_cell_angle_beta   90.00000000
_cell_angle_gamma   90.00000000
_symmetry_Int_Tables_number   1
_chemical_formula_structural   ZnH3C5BrN4
_chemical_formula_sum   'Zn8 H24 C40 Br8 N32'
_cell_volume   1965.46472955
_cell_formula_units_Z   8
loop_
 _symmetry_equiv_pos_site_id
 _symmetry_equiv_pos_as_xyz
  1  'x, y, z'
loop_
 _atom_site_type_symbol
 _atom_site_label
 _atom_site_symmetry_multiplicity
 _atom_site_fract_x
 _atom_site_fract_y
 _atom_site_fract_z
 _atom_site_occupancy
  Zn  Zn0  1  0.00397000  0.80791000  0.15462000  1
  Zn  Zn1  1  0.08513000  0.66254000  0.67327000  1
  Zn  Zn2  1  0.41487000  0.16254000  0.17327000  1
  Zn  Zn3  1  0.49603000  0.30791000  0.65462000  1
  Zn  Zn4  1  0.50397000  0.69209000  0.34538000  1
  Zn  Zn5  1  0.58513000  0.83746000  0.82673000  1
  Zn  Zn6  1  0.91487000  0.33746000  0.32673000  1
  Zn  Zn7  1  0.99603000  0.19209000  0.84538000  1
  H  H8  1  0.08890000  0.26320000  0.47640000  1
  H  H9  1  0.17770000  0.03080000  0.79110000  1
  H  H10  1  0.20180000  0.97410000  0.14970000  1
  H  H11  1  0.20440000  0.25280000  0.68900000  1
  H  H12  1  0.20660000  0.18510000  0.02180000  1
  H  H13  1  0.20850000  0.31130000  0.26280000  1
  H  H14  1  0.29150000  0.81130000  0.76280000  1
  H  H15  1  0.29340000  0.68510000  0.52180000  1
  H  H16  1  0.29560000  0.75280000  0.18900000  1
  H  H17  1  0.29820000  0.47410000  0.64970000  1
  H  H18  1  0.32230000  0.53080000  0.29110000  1
  H  H19  1  0.41110000  0.76320000  0.97640000  1
  H  H20  1  0.58890000  0.23680000  0.02360000  1
  H  H21  1  0.67770000  0.46920000  0.70890000  1
  H  H22  1  0.70180000  0.52590000  0.35030000  1
  H  H23  1  0.70440000  0.24720000  0.81100000  1
  H  H24  1  0.70660000  0.31490000  0.47820000  1
  H  H25  1  0.70850000  0.18870000  0.23720000  1
  H  H26  1  0.79150000  0.68870000  0.73720000  1
  H  H27  1  0.79340000  0.81490000  0.97820000  1
  H  H28  1  0.79560000  0.74720000  0.31100000  1
  H  H29  1  0.79820000  0.02590000  0.85030000  1
  H  H30  1  0.82230000  0.96920000  0.20890000  1
  H  H31  1  0.91110000  0.73680000  0.52360000  1
  C  C32  1  0.00950000  0.26610000  0.51140000  1
  C  C33  1  0.01110000  0.14460000  0.23750000  1
  C  C34  1  0.09820000  0.99460000  0.79090000  1
  C  C35  1  0.09880000  0.74990000  0.35240000  1
  C  C36  1  0.12530000  0.00580000  0.17360000  1
  C  C37  1  0.12910000  0.10180000  0.20550000  1
  C  C38  1  0.16440000  0.25120000  0.24960000  1
  C  C39  1  0.21540000  0.70290000  0.48980000  1
  C  C40  1  0.21780000  0.72470000  0.39570000  1
  C  C41  1  0.24800000  0.24790000  0.74810000  1
  C  C42  1  0.25200000  0.74790000  0.24810000  1
  C  C43  1  0.28220000  0.22470000  0.89570000  1
  C  C44  1  0.28460000  0.20290000  0.98980000  1
  C  C45  1  0.33560000  0.75120000  0.74960000  1
  C  C46  1  0.37090000  0.60180000  0.70550000  1
  C  C47  1  0.37470000  0.50580000  0.67360000  1
  C  C48  1  0.40120000  0.24990000  0.85240000  1
  C  C49  1  0.40180000  0.49460000  0.29090000  1
  C  C50  1  0.48890000  0.64460000  0.73750000  1
  C  C51  1  0.49050000  0.76610000  0.01140000  1
  C  C52  1  0.50950000  0.23390000  0.98860000  1
  C  C53  1  0.51110000  0.35540000  0.26250000  1
  C  C54  1  0.59820000  0.50540000  0.70910000  1
  C  C55  1  0.59880000  0.75010000  0.14760000  1
  C  C56  1  0.62530000  0.49420000  0.32640000  1
  C  C57  1  0.62910000  0.39820000  0.29450000  1
  C  C58  1  0.66440000  0.24880000  0.25040000  1
  C  C59  1  0.71540000  0.79710000  0.01020000  1
  C  C60  1  0.71780000  0.77530000  0.10430000  1
  C  C61  1  0.74800000  0.25210000  0.75190000  1
  C  C62  1  0.75200000  0.75210000  0.25190000  1
  C  C63  1  0.78220000  0.27530000  0.60430000  1
  C  C64  1  0.78460000  0.29710000  0.51020000  1
  C  C65  1  0.83560000  0.74880000  0.75040000  1
  C  C66  1  0.87090000  0.89820000  0.79450000  1
  C  C67  1  0.87470000  0.99420000  0.82640000  1
  C  C68  1  0.90120000  0.25010000  0.64760000  1
  C  C69  1  0.90180000  0.00540000  0.20910000  1
  C  C70  1  0.98890000  0.85540000  0.76250000  1
  C  C71  1  0.99050000  0.73390000  0.48860000  1
  Br  Br72  1  0.00700000  0.49529000  0.32341000  1
  Br  Br73  1  0.09107000  0.77136000  0.00410000  1
  Br  Br74  1  0.40893000  0.27136000  0.50410000  1
  Br  Br75  1  0.49300000  0.99529000  0.82341000  1
  Br  Br76  1  0.50700000  0.00471000  0.17659000  1
  Br  Br77  1  0.59107000  0.72864000  0.49590000  1
  Br  Br78  1  0.90893000  0.22864000  0.99590000  1
  Br  Br79  1  0.99300000  0.50471000  0.67659000  1
  N  N80  1  0.01060000  0.95790000  0.17710000  1
  N  N81  1  0.01550000  0.24360000  0.60250000  1
  N  N82  1  0.03490000  0.23970000  0.26570000  1
  N  N83  1  0.10030000  0.70720000  0.53600000  1
  N  N84  1  0.10370000  0.90200000  0.75920000  1
  N  N85  1  0.12100000  0.76390000  0.25790000  1
  N  N86  1  0.18510000  0.22490000  0.82720000  1
  N  N87  1  0.22650000  0.17190000  0.21350000  1
  N  N88  1  0.27350000  0.67190000  0.71350000  1
  N  N89  1  0.31490000  0.72490000  0.32720000  1
  N  N90  1  0.37900000  0.26390000  0.75790000  1
  N  N91  1  0.39630000  0.40200000  0.25920000  1
  N  N92  1  0.39970000  0.20720000  0.03600000  1
  N  N93  1  0.46510000  0.73970000  0.76570000  1
  N  N94  1  0.48450000  0.74360000  0.10250000  1
  N  N95  1  0.48940000  0.45790000  0.67710000  1
  N  N96  1  0.51060000  0.54210000  0.32290000  1
  N  N97  1  0.51550000  0.25640000  0.89750000  1
  N  N98  1  0.53490000  0.26030000  0.23430000  1
  N  N99  1  0.60030000  0.79280000  0.96400000  1
  N  N100  1  0.60370000  0.59800000  0.74080000  1
  N  N101  1  0.62100000  0.73610000  0.24210000  1
  N  N102  1  0.68510000  0.27510000  0.67280000  1
  N  N103  1  0.72650000  0.32810000  0.28650000  1
  N  N104  1  0.77350000  0.82810000  0.78650000  1
  N  N105  1  0.81490000  0.77510000  0.17280000  1
  N  N106  1  0.87900000  0.23610000  0.74210000  1
  N  N107  1  0.89630000  0.09800000  0.24080000  1
  N  N108  1  0.89970000  0.29280000  0.46400000  1
  N  N109  1  0.96510000  0.76030000  0.73430000  1
  N  N110  1  0.98450000  0.75640000  0.39750000  1
  N  N111  1  0.98940000  0.04210000  0.82290000  1
