# generated using pymatgen
data_PrP4H12Ru2(CO4)4
_symmetry_space_group_name_H-M   'P 1'
_cell_length_a   9.94020000
_cell_length_b   9.94020000
_cell_length_c   15.69000000
_cell_angle_alpha   92.46620000
_cell_angle_beta   92.46620000
_cell_angle_gamma   97.17810000
_symmetry_Int_Tables_number   1
_chemical_formula_structural   PrP4H12Ru2(CO4)4
_chemical_formula_sum   'Pr2 P8 H24 Ru4 C8 O32'
_cell_volume   1534.88238679
_cell_formula_units_Z   2
loop_
 _symmetry_equiv_pos_site_id
 _symmetry_equiv_pos_as_xyz
  1  'x, y, z'
loop_
 _atom_site_type_symbol
 _atom_site_label
 _atom_site_symmetry_multiplicity
 _atom_site_fract_x
 _atom_site_fract_y
 _atom_site_fract_z
 _atom_site_occupancy
  Pr  Pr0  1  0.01058000  0.98942000  0.25000000  1
  Pr  Pr1  1  0.98942000  0.01058000  0.75000000  1
  P  P2  1  0.64974000  0.97740000  0.15167000  1
  P  P3  1  0.64317000  0.95365000  0.85839000  1
  P  P4  1  0.97740000  0.64974000  0.65167000  1
  P  P5  1  0.95365000  0.64317000  0.35839000  1
  P  P6  1  0.04635000  0.35683000  0.64161000  1
  P  P7  1  0.02260000  0.35026000  0.34833000  1
  P  P8  1  0.35683000  0.04635000  0.14161000  1
  P  P9  1  0.35026000  0.02260000  0.84833000  1
  H  H10  1  0.84930000  0.98550000  0.37870000  1
  H  H11  1  0.11900000  0.93020000  0.88730000  1
  H  H12  1  0.06980000  0.88100000  0.61270000  1
  H  H13  1  0.45040000  0.87140000  0.66940000  1
  H  H14  1  0.98550000  0.84930000  0.87870000  1
  H  H15  1  0.43010000  0.84750000  0.22070000  1
  H  H16  1  0.35280000  0.82340000  0.74380000  1
  H  H17  1  0.50340000  0.78240000  0.74340000  1
  H  H18  1  0.17660000  0.64720000  0.75620000  1
  H  H19  1  0.15250000  0.56990000  0.27930000  1
  H  H20  1  0.12860000  0.54960000  0.83060000  1
  H  H21  1  0.78240000  0.50340000  0.24340000  1
  H  H22  1  0.21760000  0.49660000  0.75660000  1
  H  H23  1  0.87140000  0.45040000  0.16940000  1
  H  H24  1  0.84750000  0.43010000  0.72070000  1
  H  H25  1  0.82340000  0.35280000  0.24380000  1
  H  H26  1  0.49660000  0.21760000  0.25660000  1
  H  H27  1  0.64720000  0.17660000  0.25620000  1
  H  H28  1  0.56990000  0.15250000  0.77930000  1
  H  H29  1  0.01450000  0.15070000  0.12130000  1
  H  H30  1  0.54960000  0.12860000  0.33060000  1
  H  H31  1  0.93020000  0.11900000  0.38730000  1
  H  H32  1  0.88100000  0.06980000  0.11270000  1
  H  H33  1  0.15070000  0.01450000  0.62130000  1
  Ru  Ru34  1  0.45531000  0.88101000  0.99662000  1
  Ru  Ru35  1  0.11899000  0.54469000  0.50338000  1
  Ru  Ru36  1  0.88101000  0.45531000  0.49662000  1
  Ru  Ru37  1  0.54469000  0.11899000  0.00338000  1
  C  C38  1  0.49870000  0.98130000  0.78270000  1
  C  C39  1  0.44670000  0.85350000  0.73020000  1
  C  C40  1  0.14650000  0.55330000  0.76980000  1
  C  C41  1  0.01870000  0.50130000  0.71730000  1
  C  C42  1  0.98130000  0.49870000  0.28270000  1
  C  C43  1  0.85350000  0.44670000  0.23020000  1
  C  C44  1  0.55330000  0.14650000  0.26980000  1
  C  C45  1  0.50130000  0.01870000  0.21730000  1
  O  O46  1  0.06810000  0.96830000  0.62340000  1
  O  O47  1  0.75620000  0.93740000  0.22220000  1
  O  O48  1  0.03170000  0.93190000  0.87660000  1
  O  O49  1  0.76300000  0.92320000  0.80130000  1
  O  O50  1  0.46030000  0.91810000  0.25560000  1
  O  O51  1  0.30570000  0.90510000  0.08040000  1
  O  O52  1  0.31180000  0.89840000  0.90410000  1
  O  O53  1  0.58470000  0.84330000  0.09710000  1
  O  O54  1  0.59280000  0.83120000  0.90880000  1
  O  O55  1  0.92320000  0.76300000  0.30130000  1
  O  O56  1  0.93740000  0.75620000  0.72220000  1
  O  O57  1  0.09490000  0.69430000  0.41960000  1
  O  O58  1  0.10160000  0.68820000  0.59590000  1
  O  O59  1  0.83120000  0.59280000  0.40880000  1
  O  O60  1  0.84330000  0.58470000  0.59710000  1
  O  O61  1  0.08190000  0.53970000  0.24440000  1
  O  O62  1  0.91810000  0.46030000  0.75560000  1
  O  O63  1  0.15670000  0.41530000  0.40290000  1
  O  O64  1  0.16880000  0.40720000  0.59120000  1
  O  O65  1  0.89840000  0.31180000  0.40410000  1
  O  O66  1  0.90510000  0.30570000  0.58040000  1
  O  O67  1  0.06260000  0.24380000  0.27780000  1
  O  O68  1  0.07680000  0.23700000  0.69870000  1
  O  O69  1  0.40720000  0.16880000  0.09120000  1
  O  O70  1  0.41530000  0.15670000  0.90290000  1
  O  O71  1  0.68820000  0.10160000  0.09590000  1
  O  O72  1  0.69430000  0.09490000  0.91960000  1
  O  O73  1  0.53970000  0.08190000  0.74440000  1
  O  O74  1  0.23700000  0.07680000  0.19870000  1
  O  O75  1  0.96830000  0.06810000  0.12340000  1
  O  O76  1  0.24380000  0.06260000  0.77780000  1
  O  O77  1  0.93190000  0.03170000  0.37660000  1
