# generated using pymatgen
data_LaH7C15O7
_symmetry_space_group_name_H-M   'P 1'
_cell_length_a   9.37600000
_cell_length_b   9.94000000
_cell_length_c   11.37700000
_cell_angle_alpha   92.97900000
_cell_angle_beta   97.83600000
_cell_angle_gamma   110.33000000
_symmetry_Int_Tables_number   1
_chemical_formula_structural   LaH7C15O7
_chemical_formula_sum   'La2 H14 C30 O14'
_cell_volume   979.32587775
_cell_formula_units_Z   2
loop_
 _symmetry_equiv_pos_site_id
 _symmetry_equiv_pos_as_xyz
  1  'x, y, z'
loop_
 _atom_site_type_symbol
 _atom_site_label
 _atom_site_symmetry_multiplicity
 _atom_site_fract_x
 _atom_site_fract_y
 _atom_site_fract_z
 _atom_site_occupancy
  La  La0  1  0.28444000  0.04771000  0.98322000  1
  La  La1  1  0.71556000  0.95229000  0.01678000  1
  H  H2  1  0.06970000  0.10610000  0.42630000  1
  H  H3  1  0.08620000  0.63510000  0.83680000  1
  H  H4  1  0.16020000  0.23030000  0.61580000  1
  H  H5  1  0.17000000  0.59660000  0.42900000  1
  H  H6  1  0.19220000  0.78270000  0.22190000  1
  H  H7  1  0.26120000  0.72200000  0.61890000  1
  H  H8  1  0.31730000  0.49790000  0.04010000  1
  H  H9  1  0.68270000  0.50210000  0.95990000  1
  H  H10  1  0.73880000  0.27800000  0.38110000  1
  H  H11  1  0.80780000  0.21730000  0.77810000  1
  H  H12  1  0.83000000  0.40340000  0.57100000  1
  H  H13  1  0.83980000  0.76970000  0.38420000  1
  H  H14  1  0.91380000  0.36490000  0.16320000  1
  H  H15  1  0.93030000  0.89390000  0.57370000  1
  C  C16  1  0.00060000  0.67690000  0.38880000  1
  C  C17  1  0.00560000  0.43690000  0.15460000  1
  C  C18  1  0.02060000  0.16420000  0.45580000  1
  C  C19  1  0.04350000  0.57610000  0.20710000  1
  C  C20  1  0.07430000  0.25950000  0.02990000  1
  C  C21  1  0.07460000  0.23800000  0.56890000  1
  C  C22  1  0.10550000  0.82300000  0.61300000  1
  C  C23  1  0.10700000  0.40680000  0.08870000  1
  C  C24  1  0.12400000  0.65790000  0.45780000  1
  C  C25  1  0.17120000  0.90870000  0.73260000  1
  C  C26  1  0.17410000  0.68860000  0.19110000  1
  C  C27  1  0.17770000  0.73230000  0.57100000  1
  C  C28  1  0.24580000  0.51890000  0.07970000  1
  C  C29  1  0.27850000  0.65700000  0.12700000  1
  C  C30  1  0.42300000  0.77220000  0.10630000  1
  C  C31  1  0.57700000  0.22780000  0.89370000  1
  C  C32  1  0.72150000  0.34300000  0.87300000  1
  C  C33  1  0.75420000  0.48110000  0.92030000  1
  C  C34  1  0.82230000  0.26770000  0.42900000  1
  C  C35  1  0.82590000  0.31140000  0.80890000  1
  C  C36  1  0.82880000  0.09130000  0.26740000  1
  C  C37  1  0.87600000  0.34210000  0.54220000  1
  C  C38  1  0.89300000  0.59320000  0.91130000  1
  C  C39  1  0.89450000  0.17700000  0.38700000  1
  C  C40  1  0.92540000  0.76200000  0.43110000  1
  C  C41  1  0.92570000  0.74050000  0.97010000  1
  C  C42  1  0.95650000  0.42390000  0.79290000  1
  C  C43  1  0.97940000  0.83580000  0.54420000  1
  C  C44  1  0.99440000  0.56310000  0.84540000  1
  C  C45  1  0.99940000  0.32310000  0.61120000  1
  O  O46  1  0.05930000  0.83580000  0.96890000  1
  O  O47  1  0.06080000  0.39660000  0.72590000  1
  O  O48  1  0.11400000  0.99880000  0.77070000  1
  O  O49  1  0.17760000  0.23520000  0.98250000  1
  O  O50  1  0.28540000  0.89580000  0.79630000  1
  O  O51  1  0.41790000  0.89360000  0.07860000  1
  O  O52  1  0.45510000  0.25250000  0.88180000  1
  O  O53  1  0.54490000  0.74750000  0.11820000  1
  O  O54  1  0.58210000  0.10640000  0.92140000  1
  O  O55  1  0.71460000  0.10420000  0.20370000  1
  O  O56  1  0.82240000  0.76480000  0.01750000  1
  O  O57  1  0.88600000  0.00120000  0.22930000  1
  O  O58  1  0.93920000  0.60340000  0.27410000  1
  O  O59  1  0.94070000  0.16420000  0.03110000  1
