data_image0
_chemical_formula_structural       O4C7HCNH2NH2NH2O4C7HCNH2NH2NH2O4C7HCNH2NH2NH2O4C7HCNH2NH2NH2O4C7HCNH2NH2NH2O4C7HCNH2NH2NH2O4C7HCNH2NH2NH2O4C7HCNH2NH2NH2O4C7HCNH2NH2NH2O4C7HCNH2NH2NH2O4C7HCNH2NH2NH2O4C7HCNH2NH2NH2O4C7HCNH2NH2NH2O4C7HCNH2NH2NH2O4C7HCNH2NH2NH2O4C7HCNH2NH2NH2O4C7HCNH2NH2NH2O4C7HCNH2NH2NH2O4C7HCNH2NH2NH2O4C7HCNH2NH2NH2O4C7HCNH2NH2NH2O4C7HCNH2NH2NH2O4C7HCNH2NH2NH2O4C7HCNH2NH2NH2O4C7HCNH2NH2NH2O4C7HCNH2NH2NH2O4C7HCNH2NH2NH2O4C7HCNH2NH2NH2O4C7HCNH2NH2NH2O4C7HCNH2NH2NH2O4C7HCNH2NH2NH2O4C7HCNH2NH2NH2O4C7HCNH2NH2NH2O4C7HCNH2NH2NH2O4C7HCNH2NH2NH2O4C7HCNH2NH2NH2O4C7HCNH2NH2NH2O4C7HCNH2NH2NH2O4C7HCNH2NH2NH2O4C7HCNH2NH2NH2O4C7HCNH2NH2NH2O4C7HCNH2NH2NH2O4C7HCNH2NH2NH2O4C7HCNH2NH2NH2O4C7HCNH2NH2NH2O4C7HCNH2NH2NH2O4C7HCNH2NH2NH2O4C7HCNH2NH2NH2Nd24
_chemical_formula_sum              "O192 C384 H336 N144 Nd24"
_cell_length_a       26.865
_cell_length_b       26.865
_cell_length_c       26.865
_cell_angle_alpha    90.0
_cell_angle_beta     90.0
_cell_angle_gamma    90.0

_space_group_name_H-M_alt    "P 1"
_space_group_IT_number       1

loop_
  _space_group_symop_operation_xyz
  'x, y, z'

loop_
  _atom_site_type_symbol
  _atom_site_label
  _atom_site_symmetry_multiplicity
  _atom_site_fract_x
  _atom_site_fract_y
  _atom_site_fract_z
  _atom_site_occupancy
  O   O1        1.0  0.9469  0.5011  0.0834  1.0000
  O   O2        1.0  0.0216  0.5302  0.08969999999999999  1.0000
  O   O3        1.0  0.9715  0.5834  0.3409  1.0000
  O   O4        1.0  0.8923  0.5802  0.3257  1.0000
  C   C1        1.0  0.9807  0.5232  0.10839999999999997  1.0000
  C   C2        1.0  0.969  0.5403  0.15949999999999995  1.0000
  C   C3        1.0  0.0076  0.5514  0.1917  1.0000
  C   C4        1.0  0.9971  0.5648  0.24139999999999995  1.0000
  C   C5        1.0  0.9477999999999998  0.568  0.2572  1.0000
  C   C6        1.0  0.9097999999999999  0.5576  0.2239  1.0000
  C   C7        1.0  0.9214  0.5439  0.1761  1.0000
  H   H1        1.0  0.8956  0.5367  0.15409999999999996  1.0000
  C   C8        1.0  0.936  0.5778  0.3112  1.0000
  N   N1        1.0  0.0375  0.5786  0.2684  1.0000
  H   H2        1.0  0.0337  0.5905  0.2978999999999999  1.0000
  H   H3        1.0  0.0669  0.5755  0.2561  1.0000
  N   N2        1.0  0.05899999999999998  0.5442  0.1827  1.0000
  H   H4        1.0  0.0688  0.5318  0.1548  1.0000
  H   H5        1.0  0.0805  0.5522  0.20499999999999996  1.0000
  N   N3        1.0  0.8614  0.5611  0.2343  1.0000
  H   H6        1.0  0.8397  0.5548  0.21169999999999997  1.0000
  H   H7        1.0  0.8519999999999999  0.5696  0.2637  1.0000
  O   O5        1.0  0.4469  0.0011  0.5834  1.0000
  O   O6        1.0  0.5216  0.0302  0.5897  1.0000
  O   O7        1.0  0.4715  0.0834  0.8409  1.0000
  O   O8        1.0  0.3923  0.0802  0.8257  1.0000
  C   C9        1.0  0.4807  0.0232  0.6084  1.0000
  C   C10       1.0  0.469  0.0403  0.6595  1.0000
  C   C11       1.0  0.5076  0.05139999999999999  0.6916999999999998  1.0000
  C   C12       1.0  0.4971  0.0648  0.7414  1.0000
  C   C13       1.0  0.4478  0.068  0.7571999999999999  1.0000
  C   C14       1.0  0.4098  0.0576  0.7238999999999999  1.0000
  C   C15       1.0  0.4213999999999999  0.0439  0.6761  1.0000
  H   H8        1.0  0.3956  0.0367  0.6541  1.0000
  C   C16       1.0  0.436  0.0778  0.8112  1.0000
  N   N4        1.0  0.5375  0.0786  0.7684  1.0000
  H   H9        1.0  0.5337  0.09049999999999998  0.7979  1.0000
  H   H10       1.0  0.5669  0.0755  0.7561  1.0000
  N   N5        1.0  0.559  0.04419999999999999  0.6826999999999998  1.0000
  H   H11       1.0  0.5688  0.0318  0.6547999999999998  1.0000
  H   H12       1.0  0.5805  0.05219999999999999  0.705  1.0000
  N   N6        1.0  0.3614  0.061099999999999995  0.7343  1.0000
  H   H13       1.0  0.3397  0.0548  0.7117  1.0000
  H   H14       1.0  0.352  0.0696  0.7636999999999999  1.0000
  O   O9        1.0  0.5531  0.4988999999999999  0.5834  1.0000
  O   O10       1.0  0.4783999999999999  0.4698  0.5897  1.0000
  O   O11       1.0  0.5285  0.4166  0.8409  1.0000
  O   O12       1.0  0.6077  0.4198  0.8257  1.0000
  C   C17       1.0  0.5193  0.4768  0.6084  1.0000
  C   C18       1.0  0.531  0.4597  0.6595  1.0000
  C   C19       1.0  0.4923999999999999  0.4486  0.6916999999999998  1.0000
  C   C20       1.0  0.5029  0.4352  0.7414  1.0000
  C   C21       1.0  0.5522  0.432  0.7571999999999999  1.0000
  C   C22       1.0  0.5902  0.4424  0.7238999999999999  1.0000
  C   C23       1.0  0.5786  0.45609999999999995  0.6761  1.0000
  H   H15       1.0  0.6044  0.4633  0.6541  1.0000
  C   C24       1.0  0.564  0.42219999999999996  0.8112  1.0000
  N   N7        1.0  0.46249999999999997  0.4213999999999999  0.7684  1.0000
  H   H16       1.0  0.46629999999999994  0.4095  0.7979  1.0000
  H   H17       1.0  0.4331  0.4245  0.7561  1.0000
  N   N8        1.0  0.441  0.4558  0.6826999999999998  1.0000
  H   H18       1.0  0.43119999999999997  0.4681999999999999  0.6547999999999998  1.0000
  H   H19       1.0  0.4194999999999999  0.4478  0.705  1.0000
  N   N9        1.0  0.6386  0.4389  0.7343  1.0000
  H   H20       1.0  0.6603  0.44519999999999993  0.7117  1.0000
  H   H21       1.0  0.648  0.4303999999999999  0.7636999999999999  1.0000
  O   O13       1.0  0.0531  0.9988999999999998  0.0834  1.0000
  O   O14       1.0  0.9784  0.9697999999999999  0.08969999999999999  1.0000
  O   O15       1.0  0.028499999999999994  0.9166  0.3409  1.0000
  O   O16       1.0  0.1077  0.9197999999999998  0.3257  1.0000
  C   C25       1.0  0.019299999999999994  0.9768  0.10839999999999997  1.0000
  C   C26       1.0  0.031  0.9597  0.15949999999999995  1.0000
  C   C27       1.0  0.9923999999999997  0.9486  0.1917  1.0000
  C   C28       1.0  0.0029  0.9351999999999999  0.24139999999999995  1.0000
  C   C29       1.0  0.05219999999999999  0.932  0.2572  1.0000
  C   C30       1.0  0.0902  0.9424  0.2239  1.0000
  C   C31       1.0  0.0786  0.9561  0.1761  1.0000
  H   H22       1.0  0.10439999999999998  0.9632999999999998  0.15409999999999996  1.0000
  C   C32       1.0  0.064  0.9221999999999998  0.3112  1.0000
  N   N10       1.0  0.9625  0.9214  0.2684  1.0000
  H   H23       1.0  0.9663  0.9094999999999999  0.2978999999999999  1.0000
  H   H24       1.0  0.9331  0.9245  0.2561  1.0000
  N   N11       1.0  0.941  0.9558  0.1827  1.0000
  H   H25       1.0  0.9311999999999998  0.9681999999999997  0.1548  1.0000
  H   H26       1.0  0.9194999999999998  0.9477999999999998  0.20499999999999996  1.0000
  N   N12       1.0  0.1386  0.9388999999999998  0.2343  1.0000
  H   H27       1.0  0.1603  0.9451999999999998  0.21169999999999997  1.0000
  H   H28       1.0  0.148  0.9304  0.2637  1.0000
  O   O17       1.0  0.0531  0.0011  0.4166  1.0000
  O   O18       1.0  0.9784  0.0302  0.4103  1.0000
  O   O19       1.0  0.028499999999999994  0.0834  0.1591  1.0000
  O   O20       1.0  0.1077  0.0802  0.17429999999999998  1.0000
  C   C33       1.0  0.019299999999999994  0.0232  0.3916  1.0000
  C   C34       1.0  0.031  0.0403  0.3405  1.0000
  C   C35       1.0  0.9923999999999997  0.05139999999999999  0.3083  1.0000
  C   C36       1.0  0.0029  0.0648  0.2586  1.0000
  C   C37       1.0  0.05219999999999999  0.068  0.2428  1.0000
  C   C38       1.0  0.0902  0.0576  0.2761  1.0000
  C   C39       1.0  0.0786  0.0439  0.3239  1.0000
  H   H29       1.0  0.10439999999999998  0.0367  0.3458999999999999  1.0000
  C   C40       1.0  0.064  0.0778  0.1888  1.0000
  N   N13       1.0  0.9625  0.0786  0.2316  1.0000
  H   H30       1.0  0.9663  0.09049999999999998  0.20209999999999997  1.0000
  H   H31       1.0  0.9331  0.0755  0.2439  1.0000
  N   N14       1.0  0.941  0.04419999999999999  0.3173  1.0000
  H   H32       1.0  0.9311999999999998  0.0318  0.3452  1.0000
  H   H33       1.0  0.9194999999999998  0.05219999999999999  0.295  1.0000
  N   N15       1.0  0.1386  0.061099999999999995  0.2657  1.0000
  H   H34       1.0  0.1603  0.0548  0.2883  1.0000
  H   H35       1.0  0.148  0.0696  0.23629999999999995  1.0000
  O   O21       1.0  0.5531  0.5011  0.9166  1.0000
  O   O22       1.0  0.4783999999999999  0.5302  0.9103  1.0000
  O   O23       1.0  0.5285  0.5834  0.6591  1.0000
  O   O24       1.0  0.6077  0.5802  0.6743  1.0000
  C   C41       1.0  0.5193  0.5232  0.8915999999999998  1.0000
  C   C42       1.0  0.531  0.5403  0.8404999999999999  1.0000
  C   C43       1.0  0.4923999999999999  0.5514  0.8082999999999998  1.0000
  C   C44       1.0  0.5029  0.5648  0.7585999999999999  1.0000
  C   C45       1.0  0.5522  0.568  0.7428  1.0000
  C   C46       1.0  0.5902  0.5576  0.7761  1.0000
  C   C47       1.0  0.5786  0.5439  0.8239  1.0000
  H   H36       1.0  0.6044  0.5367  0.8459  1.0000
  C   C48       1.0  0.564  0.5778  0.6888  1.0000
  N   N16       1.0  0.46249999999999997  0.5786  0.7315999999999998  1.0000
  H   H37       1.0  0.46629999999999994  0.5905  0.7020999999999998  1.0000
  H   H38       1.0  0.4331  0.5755  0.7439  1.0000
  N   N17       1.0  0.441  0.5442  0.8172999999999998  1.0000
  H   H39       1.0  0.43119999999999997  0.5318  0.8451999999999997  1.0000
  H   H40       1.0  0.4194999999999999  0.5522  0.795  1.0000
  N   N18       1.0  0.6386  0.5611  0.7657  1.0000
  H   H41       1.0  0.6603  0.5548  0.7883  1.0000
  H   H42       1.0  0.648  0.5696  0.7363  1.0000
  O   O25       1.0  0.4469  0.9988999999999998  0.9166  1.0000
  O   O26       1.0  0.5216  0.9697999999999999  0.9103  1.0000
  O   O27       1.0  0.4715  0.9166  0.6591  1.0000
  O   O28       1.0  0.3923  0.9197999999999998  0.6743  1.0000
  C   C49       1.0  0.4807  0.9768  0.8915999999999998  1.0000
  C   C50       1.0  0.469  0.9597  0.8404999999999999  1.0000
  C   C51       1.0  0.5076  0.9486  0.8082999999999998  1.0000
  C   C52       1.0  0.4971  0.9351999999999999  0.7585999999999999  1.0000
  C   C53       1.0  0.4478  0.932  0.7428  1.0000
  C   C54       1.0  0.4098  0.9424  0.7761  1.0000
  C   C55       1.0  0.4213999999999999  0.9561  0.8239  1.0000
  H   H43       1.0  0.3956  0.9632999999999998  0.8459  1.0000
  C   C56       1.0  0.436  0.9221999999999998  0.6888  1.0000
  N   N19       1.0  0.5375  0.9214  0.7315999999999998  1.0000
  H   H44       1.0  0.5337  0.9094999999999999  0.7020999999999998  1.0000
  H   H45       1.0  0.5669  0.9245  0.7439  1.0000
  N   N20       1.0  0.559  0.9558  0.8172999999999998  1.0000
  H   H46       1.0  0.5688  0.9681999999999997  0.8451999999999997  1.0000
  H   H47       1.0  0.5805  0.9477999999999998  0.795  1.0000
  N   N21       1.0  0.3614  0.9388999999999998  0.7657  1.0000
  H   H48       1.0  0.3397  0.9451999999999998  0.7883  1.0000
  H   H49       1.0  0.352  0.9304  0.7363  1.0000
  O   O29       1.0  0.9469  0.4988999999999999  0.4166  1.0000
  O   O30       1.0  0.0216  0.4698  0.4103  1.0000
  O   O31       1.0  0.9715  0.4166  0.1591  1.0000
  O   O32       1.0  0.8923  0.4198  0.17429999999999998  1.0000
  C   C57       1.0  0.9807  0.4768  0.3916  1.0000
  C   C58       1.0  0.969  0.4597  0.3405  1.0000
  C   C59       1.0  0.0076  0.4486  0.3083  1.0000
  C   C60       1.0  0.9971  0.4352  0.2586  1.0000
  C   C61       1.0  0.9477999999999998  0.432  0.2428  1.0000
  C   C62       1.0  0.9097999999999999  0.4424  0.2761  1.0000
  C   C63       1.0  0.9214  0.45609999999999995  0.3239  1.0000
  H   H50       1.0  0.8956  0.4633  0.3458999999999999  1.0000
  C   C64       1.0  0.936  0.42219999999999996  0.1888  1.0000
  N   N22       1.0  0.0375  0.4213999999999999  0.2316  1.0000
  H   H51       1.0  0.0337  0.4095  0.20209999999999997  1.0000
  H   H52       1.0  0.0669  0.4245  0.2439  1.0000
  N   N23       1.0  0.05899999999999998  0.4558  0.3173  1.0000
  H   H53       1.0  0.0688  0.4681999999999999  0.3452  1.0000
  H   H54       1.0  0.0805  0.4478  0.295  1.0000
  N   N24       1.0  0.8614  0.4389  0.2657  1.0000
  H   H55       1.0  0.8397  0.44519999999999993  0.2883  1.0000
  H   H56       1.0  0.8519999999999999  0.4303999999999999  0.23629999999999995  1.0000
  O   O33       1.0  0.0834  0.9469  0.5011  1.0000
  O   O34       1.0  0.08969999999999999  0.0216  0.5302  1.0000
  O   O35       1.0  0.3409  0.9715  0.5834  1.0000
  O   O36       1.0  0.3257  0.8923  0.5802  1.0000
  C   C65       1.0  0.10839999999999997  0.9807  0.5232  1.0000
  C   C66       1.0  0.15949999999999995  0.969  0.5403  1.0000
  C   C67       1.0  0.1917  0.0076  0.5514  1.0000
  C   C68       1.0  0.24139999999999995  0.9971  0.5648  1.0000
  C   C69       1.0  0.2572  0.9477999999999998  0.568  1.0000
  C   C70       1.0  0.2239  0.9097999999999999  0.5576  1.0000
  C   C71       1.0  0.1761  0.9214  0.5439  1.0000
  H   H57       1.0  0.15409999999999996  0.8956  0.5367  1.0000
  C   C72       1.0  0.3112  0.936  0.5778  1.0000
  N   N25       1.0  0.2684  0.0375  0.5786  1.0000
  H   H58       1.0  0.2978999999999999  0.0337  0.5905  1.0000
  H   H59       1.0  0.2561  0.0669  0.5755  1.0000
  N   N26       1.0  0.1827  0.05899999999999998  0.5442  1.0000
  H   H60       1.0  0.1548  0.0688  0.5318  1.0000
  H   H61       1.0  0.20499999999999996  0.0805  0.5522  1.0000
  N   N27       1.0  0.2343  0.8614  0.5611  1.0000
  H   H62       1.0  0.21169999999999997  0.8397  0.5548  1.0000
  H   H63       1.0  0.2637  0.8519999999999999  0.5696  1.0000
  O   O37       1.0  0.5834  0.4469  0.0011  1.0000
  O   O38       1.0  0.5897  0.5216  0.0302  1.0000
  O   O39       1.0  0.8409  0.4715  0.0834  1.0000
  O   O40       1.0  0.8257  0.3923  0.0802  1.0000
  C   C73       1.0  0.6084  0.4807  0.0232  1.0000
  C   C74       1.0  0.6595  0.469  0.0403  1.0000
  C   C75       1.0  0.6916999999999998  0.5076  0.05139999999999999  1.0000
  C   C76       1.0  0.7414  0.4971  0.0648  1.0000
  C   C77       1.0  0.7571999999999999  0.4478  0.068  1.0000
  C   C78       1.0  0.7238999999999999  0.4098  0.0576  1.0000
  C   C79       1.0  0.6761  0.4213999999999999  0.0439  1.0000
  H   H64       1.0  0.6541  0.3956  0.0367  1.0000
  C   C80       1.0  0.8112  0.436  0.0778  1.0000
  N   N28       1.0  0.7684  0.5375  0.0786  1.0000
  H   H65       1.0  0.7979  0.5337  0.09049999999999998  1.0000
  H   H66       1.0  0.7561  0.5669  0.0755  1.0000
  N   N29       1.0  0.6826999999999998  0.559  0.04419999999999999  1.0000
  H   H67       1.0  0.6547999999999998  0.5688  0.0318  1.0000
  H   H68       1.0  0.705  0.5805  0.05219999999999999  1.0000
  N   N30       1.0  0.7343  0.3614  0.061099999999999995  1.0000
  H   H69       1.0  0.7117  0.3397  0.0548  1.0000
  H   H70       1.0  0.7636999999999999  0.352  0.0696  1.0000
  O   O41       1.0  0.5834  0.5531  0.4988999999999999  1.0000
  O   O42       1.0  0.5897  0.4783999999999999  0.4698  1.0000
  O   O43       1.0  0.8409  0.5285  0.4166  1.0000
  O   O44       1.0  0.8257  0.6077  0.4198  1.0000
  C   C81       1.0  0.6084  0.5193  0.4768  1.0000
  C   C82       1.0  0.6595  0.531  0.4597  1.0000
  C   C83       1.0  0.6916999999999998  0.4923999999999999  0.4486  1.0000
  C   C84       1.0  0.7414  0.5029  0.4352  1.0000
  C   C85       1.0  0.7571999999999999  0.5522  0.432  1.0000
  C   C86       1.0  0.7238999999999999  0.5902  0.4424  1.0000
  C   C87       1.0  0.6761  0.5786  0.45609999999999995  1.0000
  H   H71       1.0  0.6541  0.6044  0.4633  1.0000
  C   C88       1.0  0.8112  0.564  0.42219999999999996  1.0000
  N   N31       1.0  0.7684  0.46249999999999997  0.4213999999999999  1.0000
  H   H72       1.0  0.7979  0.46629999999999994  0.4095  1.0000
  H   H73       1.0  0.7561  0.4331  0.4245  1.0000
  N   N32       1.0  0.6826999999999998  0.441  0.4558  1.0000
  H   H74       1.0  0.6547999999999998  0.43119999999999997  0.4681999999999999  1.0000
  H   H75       1.0  0.705  0.4194999999999999  0.4478  1.0000
  N   N33       1.0  0.7343  0.6386  0.4389  1.0000
  H   H76       1.0  0.7117  0.6603  0.44519999999999993  1.0000
  H   H77       1.0  0.7636999999999999  0.648  0.4303999999999999  1.0000
  O   O45       1.0  0.0834  0.0531  0.9988999999999998  1.0000
  O   O46       1.0  0.08969999999999999  0.9784  0.9697999999999999  1.0000
  O   O47       1.0  0.3409  0.028499999999999994  0.9166  1.0000
  O   O48       1.0  0.3257  0.1077  0.9197999999999998  1.0000
  C   C89       1.0  0.10839999999999997  0.019299999999999994  0.9768  1.0000
  C   C90       1.0  0.15949999999999995  0.031  0.9597  1.0000
  C   C91       1.0  0.1917  0.9923999999999997  0.9486  1.0000
  C   C92       1.0  0.24139999999999995  0.0029  0.9351999999999999  1.0000
  C   C93       1.0  0.2572  0.05219999999999999  0.932  1.0000
  C   C94       1.0  0.2239  0.0902  0.9424  1.0000
  C   C95       1.0  0.1761  0.0786  0.9561  1.0000
  H   H78       1.0  0.15409999999999996  0.10439999999999998  0.9632999999999998  1.0000
  C   C96       1.0  0.3112  0.064  0.9221999999999998  1.0000
  N   N34       1.0  0.2684  0.9625  0.9214  1.0000
  H   H79       1.0  0.2978999999999999  0.9663  0.9094999999999999  1.0000
  H   H80       1.0  0.2561  0.9331  0.9245  1.0000
  N   N35       1.0  0.1827  0.941  0.9558  1.0000
  H   H81       1.0  0.1548  0.9311999999999998  0.9681999999999997  1.0000
  H   H82       1.0  0.20499999999999996  0.9194999999999998  0.9477999999999998  1.0000
  N   N36       1.0  0.2343  0.1386  0.9388999999999998  1.0000
  H   H83       1.0  0.21169999999999997  0.1603  0.9451999999999998  1.0000
  H   H84       1.0  0.2637  0.148  0.9304  1.0000
  O   O49       1.0  0.4166  0.0531  0.0011  1.0000
  O   O50       1.0  0.4103  0.9784  0.0302  1.0000
  O   O51       1.0  0.1591  0.028499999999999994  0.0834  1.0000
  O   O52       1.0  0.17429999999999998  0.1077  0.0802  1.0000
  C   C97       1.0  0.3916  0.019299999999999994  0.0232  1.0000
  C   C98       1.0  0.3405  0.031  0.0403  1.0000
  C   C99       1.0  0.3083  0.9923999999999997  0.05139999999999999  1.0000
  C   C100      1.0  0.2586  0.0029  0.0648  1.0000
  C   C101      1.0  0.2428  0.05219999999999999  0.068  1.0000
  C   C102      1.0  0.2761  0.0902  0.0576  1.0000
  C   C103      1.0  0.3239  0.0786  0.0439  1.0000
  H   H85       1.0  0.3458999999999999  0.10439999999999998  0.0367  1.0000
  C   C104      1.0  0.1888  0.064  0.0778  1.0000
  N   N37       1.0  0.2316  0.9625  0.0786  1.0000
  H   H86       1.0  0.20209999999999997  0.9663  0.09049999999999998  1.0000
  H   H87       1.0  0.2439  0.9331  0.0755  1.0000
  N   N38       1.0  0.3173  0.941  0.04419999999999999  1.0000
  H   H88       1.0  0.3452  0.9311999999999998  0.0318  1.0000
  H   H89       1.0  0.295  0.9194999999999998  0.05219999999999999  1.0000
  N   N39       1.0  0.2657  0.1386  0.061099999999999995  1.0000
  H   H90       1.0  0.2883  0.1603  0.0548  1.0000
  H   H91       1.0  0.23629999999999995  0.148  0.0696  1.0000
  O   O53       1.0  0.9166  0.5531  0.5011  1.0000
  O   O54       1.0  0.9103  0.4783999999999999  0.5302  1.0000
  O   O55       1.0  0.6591  0.5285  0.5834  1.0000
  O   O56       1.0  0.6743  0.6077  0.5802  1.0000
  C   C105      1.0  0.8915999999999998  0.5193  0.5232  1.0000
  C   C106      1.0  0.8404999999999999  0.531  0.5403  1.0000
  C   C107      1.0  0.8082999999999998  0.4923999999999999  0.5514  1.0000
  C   C108      1.0  0.7585999999999999  0.5029  0.5648  1.0000
  C   C109      1.0  0.7428  0.5522  0.568  1.0000
  C   C110      1.0  0.7761  0.5902  0.5576  1.0000
  C   C111      1.0  0.8239  0.5786  0.5439  1.0000
  H   H92       1.0  0.8459  0.6044  0.5367  1.0000
  C   C112      1.0  0.6888  0.564  0.5778  1.0000
  N   N40       1.0  0.7315999999999998  0.46249999999999997  0.5786  1.0000
  H   H93       1.0  0.7020999999999998  0.46629999999999994  0.5905  1.0000
  H   H94       1.0  0.7439  0.4331  0.5755  1.0000
  N   N41       1.0  0.8172999999999998  0.441  0.5442  1.0000
  H   H95       1.0  0.8451999999999997  0.43119999999999997  0.5318  1.0000
  H   H96       1.0  0.795  0.4194999999999999  0.5522  1.0000
  N   N42       1.0  0.7657  0.6386  0.5611  1.0000
  H   H97       1.0  0.7883  0.6603  0.5548  1.0000
  H   H98       1.0  0.7363  0.648  0.5696  1.0000
  O   O57       1.0  0.9166  0.4469  0.9988999999999998  1.0000
  O   O58       1.0  0.9103  0.5216  0.9697999999999999  1.0000
  O   O59       1.0  0.6591  0.4715  0.9166  1.0000
  O   O60       1.0  0.6743  0.3923  0.9197999999999998  1.0000
  C   C113      1.0  0.8915999999999998  0.4807  0.9768  1.0000
  C   C114      1.0  0.8404999999999999  0.469  0.9597  1.0000
  C   C115      1.0  0.8082999999999998  0.5076  0.9486  1.0000
  C   C116      1.0  0.7585999999999999  0.4971  0.9351999999999999  1.0000
  C   C117      1.0  0.7428  0.4478  0.932  1.0000
  C   C118      1.0  0.7761  0.4098  0.9424  1.0000
  C   C119      1.0  0.8239  0.4213999999999999  0.9561  1.0000
  H   H99       1.0  0.8459  0.3956  0.9632999999999998  1.0000
  C   C120      1.0  0.6888  0.436  0.9221999999999998  1.0000
  N   N43       1.0  0.7315999999999998  0.5375  0.9214  1.0000
  H   H100      1.0  0.7020999999999998  0.5337  0.9094999999999999  1.0000
  H   H101      1.0  0.7439  0.5669  0.9245  1.0000
  N   N44       1.0  0.8172999999999998  0.559  0.9558  1.0000
  H   H102      1.0  0.8451999999999997  0.5688  0.9681999999999997  1.0000
  H   H103      1.0  0.795  0.5805  0.9477999999999998  1.0000
  N   N45       1.0  0.7657  0.3614  0.9388999999999998  1.0000
  H   H104      1.0  0.7883  0.3397  0.9451999999999998  1.0000
  H   H105      1.0  0.7363  0.352  0.9304  1.0000
  O   O61       1.0  0.4166  0.9469  0.4988999999999999  1.0000
  O   O62       1.0  0.4103  0.0216  0.4698  1.0000
  O   O63       1.0  0.1591  0.9715  0.4166  1.0000
  O   O64       1.0  0.17429999999999998  0.8923  0.4198  1.0000
  C   C121      1.0  0.3916  0.9807  0.4768  1.0000
  C   C122      1.0  0.3405  0.969  0.4597  1.0000
  C   C123      1.0  0.3083  0.0076  0.4486  1.0000
  C   C124      1.0  0.2586  0.9971  0.4352  1.0000
  C   C125      1.0  0.2428  0.9477999999999998  0.432  1.0000
  C   C126      1.0  0.2761  0.9097999999999999  0.4424  1.0000
  C   C127      1.0  0.3239  0.9214  0.45609999999999995  1.0000
  H   H106      1.0  0.3458999999999999  0.8956  0.4633  1.0000
  C   C128      1.0  0.1888  0.936  0.42219999999999996  1.0000
  N   N46       1.0  0.2316  0.0375  0.4213999999999999  1.0000
  H   H107      1.0  0.20209999999999997  0.0337  0.4095  1.0000
  H   H108      1.0  0.2439  0.0669  0.4245  1.0000
  N   N47       1.0  0.3173  0.05899999999999998  0.4558  1.0000
  H   H109      1.0  0.3452  0.0688  0.4681999999999999  1.0000
  H   H110      1.0  0.295  0.0805  0.4478  1.0000
  N   N48       1.0  0.2657  0.8614  0.4389  1.0000
  H   H111      1.0  0.2883  0.8397  0.44519999999999993  1.0000
  H   H112      1.0  0.23629999999999995  0.8519999999999999  0.4303999999999999  1.0000
  O   O65       1.0  0.5011  0.0834  0.9469  1.0000
  O   O66       1.0  0.5302  0.08969999999999999  0.0216  1.0000
  O   O67       1.0  0.5834  0.3409  0.9715  1.0000
  O   O68       1.0  0.5802  0.3257  0.8923  1.0000
  C   C129      1.0  0.5232  0.10839999999999997  0.9807  1.0000
  C   C130      1.0  0.5403  0.15949999999999995  0.969  1.0000
  C   C131      1.0  0.5514  0.1917  0.0076  1.0000
  C   C132      1.0  0.5648  0.24139999999999995  0.9971  1.0000
  C   C133      1.0  0.568  0.2572  0.9477999999999998  1.0000
  C   C134      1.0  0.5576  0.2239  0.9097999999999999  1.0000
  C   C135      1.0  0.5439  0.1761  0.9214  1.0000
  H   H113      1.0  0.5367  0.15409999999999996  0.8956  1.0000
  C   C136      1.0  0.5778  0.3112  0.936  1.0000
  N   N49       1.0  0.5786  0.2684  0.0375  1.0000
  H   H114      1.0  0.5905  0.2978999999999999  0.0337  1.0000
  H   H115      1.0  0.5755  0.2561  0.0669  1.0000
  N   N50       1.0  0.5442  0.1827  0.05899999999999998  1.0000
  H   H116      1.0  0.5318  0.1548  0.0688  1.0000
  H   H117      1.0  0.5522  0.20499999999999996  0.0805  1.0000
  N   N51       1.0  0.5611  0.2343  0.8614  1.0000
  H   H118      1.0  0.5548  0.21169999999999997  0.8397  1.0000
  H   H119      1.0  0.5696  0.2637  0.8519999999999999  1.0000
  O   O69       1.0  0.0011  0.5834  0.4469  1.0000
  O   O70       1.0  0.0302  0.5897  0.5216  1.0000
  O   O71       1.0  0.0834  0.8409  0.4715  1.0000
  O   O72       1.0  0.0802  0.8257  0.3923  1.0000
  C   C137      1.0  0.0232  0.6084  0.4807  1.0000
  C   C138      1.0  0.0403  0.6595  0.469  1.0000
  C   C139      1.0  0.05139999999999999  0.6916999999999998  0.5076  1.0000
  C   C140      1.0  0.0648  0.7414  0.4971  1.0000
  C   C141      1.0  0.068  0.7571999999999999  0.4478  1.0000
  C   C142      1.0  0.0576  0.7238999999999999  0.4098  1.0000
  C   C143      1.0  0.0439  0.6761  0.4213999999999999  1.0000
  H   H120      1.0  0.0367  0.6541  0.3956  1.0000
  C   C144      1.0  0.0778  0.8112  0.436  1.0000
  N   N52       1.0  0.0786  0.7684  0.5375  1.0000
  H   H121      1.0  0.09049999999999998  0.7979  0.5337  1.0000
  H   H122      1.0  0.0755  0.7561  0.5669  1.0000
  N   N53       1.0  0.04419999999999999  0.6826999999999998  0.559  1.0000
  H   H123      1.0  0.0318  0.6547999999999998  0.5688  1.0000
  H   H124      1.0  0.05219999999999999  0.705  0.5805  1.0000
  N   N54       1.0  0.061099999999999995  0.7343  0.3614  1.0000
  H   H125      1.0  0.0548  0.7117  0.3397  1.0000
  H   H126      1.0  0.0696  0.7636999999999999  0.352  1.0000
  O   O73       1.0  0.4988999999999999  0.5834  0.5531  1.0000
  O   O74       1.0  0.4698  0.5897  0.4783999999999999  1.0000
  O   O75       1.0  0.4166  0.8409  0.5285  1.0000
  O   O76       1.0  0.4198  0.8257  0.6077  1.0000
  C   C145      1.0  0.4768  0.6084  0.5193  1.0000
  C   C146      1.0  0.4597  0.6595  0.531  1.0000
  C   C147      1.0  0.4486  0.6916999999999998  0.4923999999999999  1.0000
  C   C148      1.0  0.4352  0.7414  0.5029  1.0000
  C   C149      1.0  0.432  0.7571999999999999  0.5522  1.0000
  C   C150      1.0  0.4424  0.7238999999999999  0.5902  1.0000
  C   C151      1.0  0.45609999999999995  0.6761  0.5786  1.0000
  H   H127      1.0  0.4633  0.6541  0.6044  1.0000
  C   C152      1.0  0.42219999999999996  0.8112  0.564  1.0000
  N   N55       1.0  0.4213999999999999  0.7684  0.46249999999999997  1.0000
  H   H128      1.0  0.4095  0.7979  0.46629999999999994  1.0000
  H   H129      1.0  0.4245  0.7561  0.4331  1.0000
  N   N56       1.0  0.4558  0.6826999999999998  0.441  1.0000
  H   H130      1.0  0.4681999999999999  0.6547999999999998  0.43119999999999997  1.0000
  H   H131      1.0  0.4478  0.705  0.4194999999999999  1.0000
  N   N57       1.0  0.4389  0.7343  0.6386  1.0000
  H   H132      1.0  0.44519999999999993  0.7117  0.6603  1.0000
  H   H133      1.0  0.4303999999999999  0.7636999999999999  0.648  1.0000
  O   O77       1.0  0.9988999999999998  0.0834  0.0531  1.0000
  O   O78       1.0  0.9697999999999999  0.08969999999999999  0.9784  1.0000
  O   O79       1.0  0.9166  0.3409  0.028499999999999994  1.0000
  O   O80       1.0  0.9197999999999998  0.3257  0.1077  1.0000
  C   C153      1.0  0.9768  0.10839999999999997  0.019299999999999994  1.0000
  C   C154      1.0  0.9597  0.15949999999999995  0.031  1.0000
  C   C155      1.0  0.9486  0.1917  0.9923999999999997  1.0000
  C   C156      1.0  0.9351999999999999  0.24139999999999995  0.0029  1.0000
  C   C157      1.0  0.932  0.2572  0.05219999999999999  1.0000
  C   C158      1.0  0.9424  0.2239  0.0902  1.0000
  C   C159      1.0  0.9561  0.1761  0.0786  1.0000
  H   H134      1.0  0.9632999999999998  0.15409999999999996  0.10439999999999998  1.0000
  C   C160      1.0  0.9221999999999998  0.3112  0.064  1.0000
  N   N58       1.0  0.9214  0.2684  0.9625  1.0000
  H   H135      1.0  0.9094999999999999  0.2978999999999999  0.9663  1.0000
  H   H136      1.0  0.9245  0.2561  0.9331  1.0000
  N   N59       1.0  0.9558  0.1827  0.941  1.0000
  H   H137      1.0  0.9681999999999997  0.1548  0.9311999999999998  1.0000
  H   H138      1.0  0.9477999999999998  0.20499999999999996  0.9194999999999998  1.0000
  N   N60       1.0  0.9388999999999998  0.2343  0.1386  1.0000
  H   H139      1.0  0.9451999999999998  0.21169999999999997  0.1603  1.0000
  H   H140      1.0  0.9304  0.2637  0.148  1.0000
  O   O81       1.0  0.0011  0.4166  0.0531  1.0000
  O   O82       1.0  0.0302  0.4103  0.9784  1.0000
  O   O83       1.0  0.0834  0.1591  0.028499999999999994  1.0000
  O   O84       1.0  0.0802  0.17429999999999998  0.1077  1.0000
  C   C161      1.0  0.0232  0.3916  0.019299999999999994  1.0000
  C   C162      1.0  0.0403  0.3405  0.031  1.0000
  C   C163      1.0  0.05139999999999999  0.3083  0.9923999999999997  1.0000
  C   C164      1.0  0.0648  0.2586  0.0029  1.0000
  C   C165      1.0  0.068  0.2428  0.05219999999999999  1.0000
  C   C166      1.0  0.0576  0.2761  0.0902  1.0000
  C   C167      1.0  0.0439  0.3239  0.0786  1.0000
  H   H141      1.0  0.0367  0.3458999999999999  0.10439999999999998  1.0000
  C   C168      1.0  0.0778  0.1888  0.064  1.0000
  N   N61       1.0  0.0786  0.2316  0.9625  1.0000
  H   H142      1.0  0.09049999999999998  0.20209999999999997  0.9663  1.0000
  H   H143      1.0  0.0755  0.2439  0.9331  1.0000
  N   N62       1.0  0.04419999999999999  0.3173  0.941  1.0000
  H   H144      1.0  0.0318  0.3452  0.9311999999999998  1.0000
  H   H145      1.0  0.05219999999999999  0.295  0.9194999999999998  1.0000
  N   N63       1.0  0.061099999999999995  0.2657  0.1386  1.0000
  H   H146      1.0  0.0548  0.2883  0.1603  1.0000
  H   H147      1.0  0.0696  0.23629999999999995  0.148  1.0000
  O   O85       1.0  0.5011  0.9166  0.5531  1.0000
  O   O86       1.0  0.5302  0.9103  0.4783999999999999  1.0000
  O   O87       1.0  0.5834  0.6591  0.5285  1.0000
  O   O88       1.0  0.5802  0.6743  0.6077  1.0000
  C   C169      1.0  0.5232  0.8915999999999998  0.5193  1.0000
  C   C170      1.0  0.5403  0.8404999999999999  0.531  1.0000
  C   C171      1.0  0.5514  0.8082999999999998  0.4923999999999999  1.0000
  C   C172      1.0  0.5648  0.7585999999999999  0.5029  1.0000
  C   C173      1.0  0.568  0.7428  0.5522  1.0000
  C   C174      1.0  0.5576  0.7761  0.5902  1.0000
  C   C175      1.0  0.5439  0.8239  0.5786  1.0000
  H   H148      1.0  0.5367  0.8459  0.6044  1.0000
  C   C176      1.0  0.5778  0.6888  0.564  1.0000
  N   N64       1.0  0.5786  0.7315999999999998  0.46249999999999997  1.0000
  H   H149      1.0  0.5905  0.7020999999999998  0.46629999999999994  1.0000
  H   H150      1.0  0.5755  0.7439  0.4331  1.0000
  N   N65       1.0  0.5442  0.8172999999999998  0.441  1.0000
  H   H151      1.0  0.5318  0.8451999999999997  0.43119999999999997  1.0000
  H   H152      1.0  0.5522  0.795  0.4194999999999999  1.0000
  N   N66       1.0  0.5611  0.7657  0.6386  1.0000
  H   H153      1.0  0.5548  0.7883  0.6603  1.0000
  H   H154      1.0  0.5696  0.7363  0.648  1.0000
  O   O89       1.0  0.9988999999999998  0.9166  0.4469  1.0000
  O   O90       1.0  0.9697999999999999  0.9103  0.5216  1.0000
  O   O91       1.0  0.9166  0.6591  0.4715  1.0000
  O   O92       1.0  0.9197999999999998  0.6743  0.3923  1.0000
  C   C177      1.0  0.9768  0.8915999999999998  0.4807  1.0000
  C   C178      1.0  0.9597  0.8404999999999999  0.469  1.0000
  C   C179      1.0  0.9486  0.8082999999999998  0.5076  1.0000
  C   C180      1.0  0.9351999999999999  0.7585999999999999  0.4971  1.0000
  C   C181      1.0  0.932  0.7428  0.4478  1.0000
  C   C182      1.0  0.9424  0.7761  0.4098  1.0000
  C   C183      1.0  0.9561  0.8239  0.4213999999999999  1.0000
  H   H155      1.0  0.9632999999999998  0.8459  0.3956  1.0000
  C   C184      1.0  0.9221999999999998  0.6888  0.436  1.0000
  N   N67       1.0  0.9214  0.7315999999999998  0.5375  1.0000
  H   H156      1.0  0.9094999999999999  0.7020999999999998  0.5337  1.0000
  H   H157      1.0  0.9245  0.7439  0.5669  1.0000
  N   N68       1.0  0.9558  0.8172999999999998  0.559  1.0000
  H   H158      1.0  0.9681999999999997  0.8451999999999997  0.5688  1.0000
  H   H159      1.0  0.9477999999999998  0.795  0.5805  1.0000
  N   N69       1.0  0.9388999999999998  0.7657  0.3614  1.0000
  H   H160      1.0  0.9451999999999998  0.7883  0.3397  1.0000
  H   H161      1.0  0.9304  0.7363  0.352  1.0000
  O   O93       1.0  0.4988999999999999  0.4166  0.9469  1.0000
  O   O94       1.0  0.4698  0.4103  0.0216  1.0000
  O   O95       1.0  0.4166  0.1591  0.9715  1.0000
  O   O96       1.0  0.4198  0.17429999999999998  0.8923  1.0000
  C   C185      1.0  0.4768  0.3916  0.9807  1.0000
  C   C186      1.0  0.4597  0.3405  0.969  1.0000
  C   C187      1.0  0.4486  0.3083  0.0076  1.0000
  C   C188      1.0  0.4352  0.2586  0.9971  1.0000
  C   C189      1.0  0.432  0.2428  0.9477999999999998  1.0000
  C   C190      1.0  0.4424  0.2761  0.9097999999999999  1.0000
  C   C191      1.0  0.45609999999999995  0.3239  0.9214  1.0000
  H   H162      1.0  0.4633  0.3458999999999999  0.8956  1.0000
  C   C192      1.0  0.42219999999999996  0.1888  0.936  1.0000
  N   N70       1.0  0.4213999999999999  0.2316  0.0375  1.0000
  H   H163      1.0  0.4095  0.20209999999999997  0.0337  1.0000
  H   H164      1.0  0.4245  0.2439  0.0669  1.0000
  N   N71       1.0  0.4558  0.3173  0.05899999999999998  1.0000
  H   H165      1.0  0.4681999999999999  0.3452  0.0688  1.0000
  H   H166      1.0  0.4478  0.295  0.0805  1.0000
  N   N72       1.0  0.4389  0.2657  0.8614  1.0000
  H   H167      1.0  0.44519999999999993  0.2883  0.8397  1.0000
  H   H168      1.0  0.4303999999999999  0.23629999999999995  0.8519999999999999  1.0000
  O   O97       1.0  0.0531  0.4988999999999999  0.9166  1.0000
  O   O98       1.0  0.9784  0.4698  0.9103  1.0000
  O   O99       1.0  0.028499999999999994  0.4166  0.6591  1.0000
  O   O100      1.0  0.1077  0.4198  0.6743  1.0000
  C   C193      1.0  0.019299999999999994  0.4768  0.8915999999999998  1.0000
  C   C194      1.0  0.031  0.4597  0.8404999999999999  1.0000
  C   C195      1.0  0.9923999999999997  0.4486  0.8082999999999998  1.0000
  C   C196      1.0  0.0029  0.4352  0.7585999999999999  1.0000
  C   C197      1.0  0.05219999999999999  0.432  0.7428  1.0000
  C   C198      1.0  0.0902  0.4424  0.7761  1.0000
  C   C199      1.0  0.0786  0.45609999999999995  0.8239  1.0000
  H   H169      1.0  0.10439999999999998  0.4633  0.8459  1.0000
  C   C200      1.0  0.064  0.42219999999999996  0.6888  1.0000
  N   N73       1.0  0.9625  0.4213999999999999  0.7315999999999998  1.0000
  H   H170      1.0  0.9663  0.4095  0.7020999999999998  1.0000
  H   H171      1.0  0.9331  0.4245  0.7439  1.0000
  N   N74       1.0  0.941  0.4558  0.8172999999999998  1.0000
  H   H172      1.0  0.9311999999999998  0.4681999999999999  0.8451999999999997  1.0000
  H   H173      1.0  0.9194999999999998  0.4478  0.795  1.0000
  N   N75       1.0  0.1386  0.4389  0.7657  1.0000
  H   H174      1.0  0.1603  0.44519999999999993  0.7883  1.0000
  H   H175      1.0  0.148  0.4303999999999999  0.7363  1.0000
  O   O101      1.0  0.5531  0.9988999999999998  0.4166  1.0000
  O   O102      1.0  0.4783999999999999  0.9697999999999999  0.4103  1.0000
  O   O103      1.0  0.5285  0.9166  0.1591  1.0000
  O   O104      1.0  0.6077  0.9197999999999998  0.17429999999999998  1.0000
  C   C201      1.0  0.5193  0.9768  0.3916  1.0000
  C   C202      1.0  0.531  0.9597  0.3405  1.0000
  C   C203      1.0  0.4923999999999999  0.9486  0.3083  1.0000
  C   C204      1.0  0.5029  0.9351999999999999  0.2586  1.0000
  C   C205      1.0  0.5522  0.932  0.2428  1.0000
  C   C206      1.0  0.5902  0.9424  0.2761  1.0000
  C   C207      1.0  0.5786  0.9561  0.3239  1.0000
  H   H176      1.0  0.6044  0.9632999999999998  0.3458999999999999  1.0000
  C   C208      1.0  0.564  0.9221999999999998  0.1888  1.0000
  N   N76       1.0  0.46249999999999997  0.9214  0.2316  1.0000
  H   H177      1.0  0.46629999999999994  0.9094999999999999  0.20209999999999997  1.0000
  H   H178      1.0  0.4331  0.9245  0.2439  1.0000
  N   N77       1.0  0.441  0.9558  0.3173  1.0000
  H   H179      1.0  0.43119999999999997  0.9681999999999997  0.3452  1.0000
  H   H180      1.0  0.4194999999999999  0.9477999999999998  0.295  1.0000
  N   N78       1.0  0.6386  0.9388999999999998  0.2657  1.0000
  H   H181      1.0  0.6603  0.9451999999999998  0.2883  1.0000
  H   H182      1.0  0.648  0.9304  0.23629999999999995  1.0000
  O   O105      1.0  0.4469  0.5011  0.4166  1.0000
  O   O106      1.0  0.5216  0.5302  0.4103  1.0000
  O   O107      1.0  0.4715  0.5834  0.1591  1.0000
  O   O108      1.0  0.3923  0.5802  0.17429999999999998  1.0000
  C   C209      1.0  0.4807  0.5232  0.3916  1.0000
  C   C210      1.0  0.469  0.5403  0.3405  1.0000
  C   C211      1.0  0.5076  0.5514  0.3083  1.0000
  C   C212      1.0  0.4971  0.5648  0.2586  1.0000
  C   C213      1.0  0.4478  0.568  0.2428  1.0000
  C   C214      1.0  0.4098  0.5576  0.2761  1.0000
  C   C215      1.0  0.4213999999999999  0.5439  0.3239  1.0000
  H   H183      1.0  0.3956  0.5367  0.3458999999999999  1.0000
  C   C216      1.0  0.436  0.5778  0.1888  1.0000
  N   N79       1.0  0.5375  0.5786  0.2316  1.0000
  H   H184      1.0  0.5337  0.5905  0.20209999999999997  1.0000
  H   H185      1.0  0.5669  0.5755  0.2439  1.0000
  N   N80       1.0  0.559  0.5442  0.3173  1.0000
  H   H186      1.0  0.5688  0.5318  0.3452  1.0000
  H   H187      1.0  0.5805  0.5522  0.295  1.0000
  N   N81       1.0  0.3614  0.5611  0.2657  1.0000
  H   H188      1.0  0.3397  0.5548  0.2883  1.0000
  H   H189      1.0  0.352  0.5696  0.23629999999999995  1.0000
  O   O109      1.0  0.9469  0.0011  0.9166  1.0000
  O   O110      1.0  0.0216  0.0302  0.9103  1.0000
  O   O111      1.0  0.9715  0.0834  0.6591  1.0000
  O   O112      1.0  0.8923  0.0802  0.6743  1.0000
  C   C217      1.0  0.9807  0.0232  0.8915999999999998  1.0000
  C   C218      1.0  0.969  0.0403  0.8404999999999999  1.0000
  C   C219      1.0  0.0076  0.05139999999999999  0.8082999999999998  1.0000
  C   C220      1.0  0.9971  0.0648  0.7585999999999999  1.0000
  C   C221      1.0  0.9477999999999998  0.068  0.7428  1.0000
  C   C222      1.0  0.9097999999999999  0.0576  0.7761  1.0000
  C   C223      1.0  0.9214  0.0439  0.8239  1.0000
  H   H190      1.0  0.8956  0.0367  0.8459  1.0000
  C   C224      1.0  0.936  0.0778  0.6888  1.0000
  N   N82       1.0  0.0375  0.0786  0.7315999999999998  1.0000
  H   H191      1.0  0.0337  0.09049999999999998  0.7020999999999998  1.0000
  H   H192      1.0  0.0669  0.0755  0.7439  1.0000
  N   N83       1.0  0.05899999999999998  0.04419999999999999  0.8172999999999998  1.0000
  H   H193      1.0  0.0688  0.0318  0.8451999999999997  1.0000
  H   H194      1.0  0.0805  0.05219999999999999  0.795  1.0000
  N   N84       1.0  0.8614  0.061099999999999995  0.7657  1.0000
  H   H195      1.0  0.8397  0.0548  0.7883  1.0000
  H   H196      1.0  0.8519999999999999  0.0696  0.7363  1.0000
  O   O113      1.0  0.9469  0.9988999999999998  0.5834  1.0000
  O   O114      1.0  0.0216  0.9697999999999999  0.5897  1.0000
  O   O115      1.0  0.9715  0.9166  0.8409  1.0000
  O   O116      1.0  0.8923  0.9197999999999998  0.8257  1.0000
  C   C225      1.0  0.9807  0.9768  0.6084  1.0000
  C   C226      1.0  0.969  0.9597  0.6595  1.0000
  C   C227      1.0  0.0076  0.9486  0.6916999999999998  1.0000
  C   C228      1.0  0.9971  0.9351999999999999  0.7414  1.0000
  C   C229      1.0  0.9477999999999998  0.932  0.7571999999999999  1.0000
  C   C230      1.0  0.9097999999999999  0.9424  0.7238999999999999  1.0000
  C   C231      1.0  0.9214  0.9561  0.6761  1.0000
  H   H197      1.0  0.8956  0.9632999999999998  0.6541  1.0000
  C   C232      1.0  0.936  0.9221999999999998  0.8112  1.0000
  N   N85       1.0  0.0375  0.9214  0.7684  1.0000
  H   H198      1.0  0.0337  0.9094999999999999  0.7979  1.0000
  H   H199      1.0  0.0669  0.9245  0.7561  1.0000
  N   N86       1.0  0.05899999999999998  0.9558  0.6826999999999998  1.0000
  H   H200      1.0  0.0688  0.9681999999999997  0.6547999999999998  1.0000
  H   H201      1.0  0.0805  0.9477999999999998  0.705  1.0000
  N   N87       1.0  0.8614  0.9388999999999998  0.7343  1.0000
  H   H202      1.0  0.8397  0.9451999999999998  0.7117  1.0000
  H   H203      1.0  0.8519999999999999  0.9304  0.7636999999999999  1.0000
  O   O117      1.0  0.4469  0.4988999999999999  0.0834  1.0000
  O   O118      1.0  0.5216  0.4698  0.08969999999999999  1.0000
  O   O119      1.0  0.4715  0.4166  0.3409  1.0000
  O   O120      1.0  0.3923  0.4198  0.3257  1.0000
  C   C233      1.0  0.4807  0.4768  0.10839999999999997  1.0000
  C   C234      1.0  0.469  0.4597  0.15949999999999995  1.0000
  C   C235      1.0  0.5076  0.4486  0.1917  1.0000
  C   C236      1.0  0.4971  0.4352  0.24139999999999995  1.0000
  C   C237      1.0  0.4478  0.432  0.2572  1.0000
  C   C238      1.0  0.4098  0.4424  0.2239  1.0000
  C   C239      1.0  0.4213999999999999  0.45609999999999995  0.1761  1.0000
  H   H204      1.0  0.3956  0.4633  0.15409999999999996  1.0000
  C   C240      1.0  0.436  0.42219999999999996  0.3112  1.0000
  N   N88       1.0  0.5375  0.4213999999999999  0.2684  1.0000
  H   H205      1.0  0.5337  0.4095  0.2978999999999999  1.0000
  H   H206      1.0  0.5669  0.4245  0.2561  1.0000
  N   N89       1.0  0.559  0.4558  0.1827  1.0000
  H   H207      1.0  0.5688  0.4681999999999999  0.1548  1.0000
  H   H208      1.0  0.5805  0.4478  0.20499999999999996  1.0000
  N   N90       1.0  0.3614  0.4389  0.2343  1.0000
  H   H209      1.0  0.3397  0.44519999999999993  0.21169999999999997  1.0000
  H   H210      1.0  0.352  0.4303999999999999  0.2637  1.0000
  O   O121      1.0  0.5531  0.0011  0.0834  1.0000
  O   O122      1.0  0.4783999999999999  0.0302  0.08969999999999999  1.0000
  O   O123      1.0  0.5285  0.0834  0.3409  1.0000
  O   O124      1.0  0.6077  0.0802  0.3257  1.0000
  C   C241      1.0  0.5193  0.0232  0.10839999999999997  1.0000
  C   C242      1.0  0.531  0.0403  0.15949999999999995  1.0000
  C   C243      1.0  0.4923999999999999  0.05139999999999999  0.1917  1.0000
  C   C244      1.0  0.5029  0.0648  0.24139999999999995  1.0000
  C   C245      1.0  0.5522  0.068  0.2572  1.0000
  C   C246      1.0  0.5902  0.0576  0.2239  1.0000
  C   C247      1.0  0.5786  0.0439  0.1761  1.0000
  H   H211      1.0  0.6044  0.0367  0.15409999999999996  1.0000
  C   C248      1.0  0.564  0.0778  0.3112  1.0000
  N   N91       1.0  0.46249999999999997  0.0786  0.2684  1.0000
  H   H212      1.0  0.46629999999999994  0.09049999999999998  0.2978999999999999  1.0000
  H   H213      1.0  0.4331  0.0755  0.2561  1.0000
  N   N92       1.0  0.441  0.04419999999999999  0.1827  1.0000
  H   H214      1.0  0.43119999999999997  0.0318  0.1548  1.0000
  H   H215      1.0  0.4194999999999999  0.05219999999999999  0.20499999999999996  1.0000
  N   N93       1.0  0.6386  0.061099999999999995  0.2343  1.0000
  H   H216      1.0  0.6603  0.0548  0.21169999999999997  1.0000
  H   H217      1.0  0.648  0.0696  0.2637  1.0000
  O   O125      1.0  0.0531  0.5011  0.5834  1.0000
  O   O126      1.0  0.9784  0.5302  0.5897  1.0000
  O   O127      1.0  0.028499999999999994  0.5834  0.8409  1.0000
  O   O128      1.0  0.1077  0.5802  0.8257  1.0000
  C   C249      1.0  0.019299999999999994  0.5232  0.6084  1.0000
  C   C250      1.0  0.031  0.5403  0.6595  1.0000
  C   C251      1.0  0.9923999999999997  0.5514  0.6916999999999998  1.0000
  C   C252      1.0  0.0029  0.5648  0.7414  1.0000
  C   C253      1.0  0.05219999999999999  0.568  0.7571999999999999  1.0000
  C   C254      1.0  0.0902  0.5576  0.7238999999999999  1.0000
  C   C255      1.0  0.0786  0.5439  0.6761  1.0000
  H   H218      1.0  0.10439999999999998  0.5367  0.6541  1.0000
  C   C256      1.0  0.064  0.5778  0.8112  1.0000
  N   N94       1.0  0.9625  0.5786  0.7684  1.0000
  H   H219      1.0  0.9663  0.5905  0.7979  1.0000
  H   H220      1.0  0.9331  0.5755  0.7561  1.0000
  N   N95       1.0  0.941  0.5442  0.6826999999999998  1.0000
  H   H221      1.0  0.9311999999999998  0.5318  0.6547999999999998  1.0000
  H   H222      1.0  0.9194999999999998  0.5522  0.705  1.0000
  N   N96       1.0  0.1386  0.5611  0.7343  1.0000
  H   H223      1.0  0.1603  0.5548  0.7117  1.0000
  H   H224      1.0  0.148  0.5696  0.7636999999999999  1.0000
  O   O129      1.0  0.9166  0.0531  0.4988999999999999  1.0000
  O   O130      1.0  0.9103  0.9784  0.4698  1.0000
  O   O131      1.0  0.6591  0.028499999999999994  0.4166  1.0000
  O   O132      1.0  0.6743  0.1077  0.4198  1.0000
  C   C257      1.0  0.8915999999999998  0.019299999999999994  0.4768  1.0000
  C   C258      1.0  0.8404999999999999  0.031  0.4597  1.0000
  C   C259      1.0  0.8082999999999998  0.9923999999999997  0.4486  1.0000
  C   C260      1.0  0.7585999999999999  0.0029  0.4352  1.0000
  C   C261      1.0  0.7428  0.05219999999999999  0.432  1.0000
  C   C262      1.0  0.7761  0.0902  0.4424  1.0000
  C   C263      1.0  0.8239  0.0786  0.45609999999999995  1.0000
  H   H225      1.0  0.8459  0.10439999999999998  0.4633  1.0000
  C   C264      1.0  0.6888  0.064  0.42219999999999996  1.0000
  N   N97       1.0  0.7315999999999998  0.9625  0.4213999999999999  1.0000
  H   H226      1.0  0.7020999999999998  0.9663  0.4095  1.0000
  H   H227      1.0  0.7439  0.9331  0.4245  1.0000
  N   N98       1.0  0.8172999999999998  0.941  0.4558  1.0000
  H   H228      1.0  0.8451999999999997  0.9311999999999998  0.4681999999999999  1.0000
  H   H229      1.0  0.795  0.9194999999999998  0.4478  1.0000
  N   N99       1.0  0.7657  0.1386  0.4389  1.0000
  H   H230      1.0  0.7883  0.1603  0.44519999999999993  1.0000
  H   H231      1.0  0.7363  0.148  0.4303999999999999  1.0000
  O   O133      1.0  0.4166  0.5531  0.9988999999999998  1.0000
  O   O134      1.0  0.4103  0.4783999999999999  0.9697999999999999  1.0000
  O   O135      1.0  0.1591  0.5285  0.9166  1.0000
  O   O136      1.0  0.17429999999999998  0.6077  0.9197999999999998  1.0000
  C   C265      1.0  0.3916  0.5193  0.9768  1.0000
  C   C266      1.0  0.3405  0.531  0.9597  1.0000
  C   C267      1.0  0.3083  0.4923999999999999  0.9486  1.0000
  C   C268      1.0  0.2586  0.5029  0.9351999999999999  1.0000
  C   C269      1.0  0.2428  0.5522  0.932  1.0000
  C   C270      1.0  0.2761  0.5902  0.9424  1.0000
  C   C271      1.0  0.3239  0.5786  0.9561  1.0000
  H   H232      1.0  0.3458999999999999  0.6044  0.9632999999999998  1.0000
  C   C272      1.0  0.1888  0.564  0.9221999999999998  1.0000
  N   N100      1.0  0.2316  0.46249999999999997  0.9214  1.0000
  H   H233      1.0  0.20209999999999997  0.46629999999999994  0.9094999999999999  1.0000
  H   H234      1.0  0.2439  0.4331  0.9245  1.0000
  N   N101      1.0  0.3173  0.441  0.9558  1.0000
  H   H235      1.0  0.3452  0.43119999999999997  0.9681999999999997  1.0000
  H   H236      1.0  0.295  0.4194999999999999  0.9477999999999998  1.0000
  N   N102      1.0  0.2657  0.6386  0.9388999999999998  1.0000
  H   H237      1.0  0.2883  0.6603  0.9451999999999998  1.0000
  H   H238      1.0  0.23629999999999995  0.648  0.9304  1.0000
  O   O137      1.0  0.4166  0.4469  0.5011  1.0000
  O   O138      1.0  0.4103  0.5216  0.5302  1.0000
  O   O139      1.0  0.1591  0.4715  0.5834  1.0000
  O   O140      1.0  0.17429999999999998  0.3923  0.5802  1.0000
  C   C273      1.0  0.3916  0.4807  0.5232  1.0000
  C   C274      1.0  0.3405  0.469  0.5403  1.0000
  C   C275      1.0  0.3083  0.5076  0.5514  1.0000
  C   C276      1.0  0.2586  0.4971  0.5648  1.0000
  C   C277      1.0  0.2428  0.4478  0.568  1.0000
  C   C278      1.0  0.2761  0.4098  0.5576  1.0000
  C   C279      1.0  0.3239  0.4213999999999999  0.5439  1.0000
  H   H239      1.0  0.3458999999999999  0.3956  0.5367  1.0000
  C   C280      1.0  0.1888  0.436  0.5778  1.0000
  N   N103      1.0  0.2316  0.5375  0.5786  1.0000
  H   H240      1.0  0.20209999999999997  0.5337  0.5905  1.0000
  H   H241      1.0  0.2439  0.5669  0.5755  1.0000
  N   N104      1.0  0.3173  0.559  0.5442  1.0000
  H   H242      1.0  0.3452  0.5688  0.5318  1.0000
  H   H243      1.0  0.295  0.5805  0.5522  1.0000
  N   N105      1.0  0.2657  0.3614  0.5611  1.0000
  H   H244      1.0  0.2883  0.3397  0.5548  1.0000
  H   H245      1.0  0.23629999999999995  0.352  0.5696  1.0000
  O   O141      1.0  0.9166  0.9469  0.0011  1.0000
  O   O142      1.0  0.9103  0.0216  0.0302  1.0000
  O   O143      1.0  0.6591  0.9715  0.0834  1.0000
  O   O144      1.0  0.6743  0.8923  0.0802  1.0000
  C   C281      1.0  0.8915999999999998  0.9807  0.0232  1.0000
  C   C282      1.0  0.8404999999999999  0.969  0.0403  1.0000
  C   C283      1.0  0.8082999999999998  0.0076  0.05139999999999999  1.0000
  C   C284      1.0  0.7585999999999999  0.9971  0.0648  1.0000
  C   C285      1.0  0.7428  0.9477999999999998  0.068  1.0000
  C   C286      1.0  0.7761  0.9097999999999999  0.0576  1.0000
  C   C287      1.0  0.8239  0.9214  0.0439  1.0000
  H   H246      1.0  0.8459  0.8956  0.0367  1.0000
  C   C288      1.0  0.6888  0.936  0.0778  1.0000
  N   N106      1.0  0.7315999999999998  0.0375  0.0786  1.0000
  H   H247      1.0  0.7020999999999998  0.0337  0.09049999999999998  1.0000
  H   H248      1.0  0.7439  0.0669  0.0755  1.0000
  N   N107      1.0  0.8172999999999998  0.05899999999999998  0.04419999999999999  1.0000
  H   H249      1.0  0.8451999999999997  0.0688  0.0318  1.0000
  H   H250      1.0  0.795  0.0805  0.05219999999999999  1.0000
  N   N108      1.0  0.7657  0.8614  0.061099999999999995  1.0000
  H   H251      1.0  0.7883  0.8397  0.0548  1.0000
  H   H252      1.0  0.7363  0.8519999999999999  0.0696  1.0000
  O   O145      1.0  0.5834  0.9469  0.9988999999999998  1.0000
  O   O146      1.0  0.5897  0.0216  0.9697999999999999  1.0000
  O   O147      1.0  0.8409  0.9715  0.9166  1.0000
  O   O148      1.0  0.8257  0.8923  0.9197999999999998  1.0000
  C   C289      1.0  0.6084  0.9807  0.9768  1.0000
  C   C290      1.0  0.6595  0.969  0.9597  1.0000
  C   C291      1.0  0.6916999999999998  0.0076  0.9486  1.0000
  C   C292      1.0  0.7414  0.9971  0.9351999999999999  1.0000
  C   C293      1.0  0.7571999999999999  0.9477999999999998  0.932  1.0000
  C   C294      1.0  0.7238999999999999  0.9097999999999999  0.9424  1.0000
  C   C295      1.0  0.6761  0.9214  0.9561  1.0000
  H   H253      1.0  0.6541  0.8956  0.9632999999999998  1.0000
  C   C296      1.0  0.8112  0.936  0.9221999999999998  1.0000
  N   N109      1.0  0.7684  0.0375  0.9214  1.0000
  H   H254      1.0  0.7979  0.0337  0.9094999999999999  1.0000
  H   H255      1.0  0.7561  0.0669  0.9245  1.0000
  N   N110      1.0  0.6826999999999998  0.05899999999999998  0.9558  1.0000
  H   H256      1.0  0.6547999999999998  0.0688  0.9681999999999997  1.0000
  H   H257      1.0  0.705  0.0805  0.9477999999999998  1.0000
  N   N111      1.0  0.7343  0.8614  0.9388999999999998  1.0000
  H   H258      1.0  0.7117  0.8397  0.9451999999999998  1.0000
  H   H259      1.0  0.7636999999999999  0.8519999999999999  0.9304  1.0000
  O   O149      1.0  0.0834  0.4469  0.4988999999999999  1.0000
  O   O150      1.0  0.08969999999999999  0.5216  0.4698  1.0000
  O   O151      1.0  0.3409  0.4715  0.4166  1.0000
  O   O152      1.0  0.3257  0.3923  0.4198  1.0000
  C   C297      1.0  0.10839999999999997  0.4807  0.4768  1.0000
  C   C298      1.0  0.15949999999999995  0.469  0.4597  1.0000
  C   C299      1.0  0.1917  0.5076  0.4486  1.0000
  C   C300      1.0  0.24139999999999995  0.4971  0.4352  1.0000
  C   C301      1.0  0.2572  0.4478  0.432  1.0000
  C   C302      1.0  0.2239  0.4098  0.4424  1.0000
  C   C303      1.0  0.1761  0.4213999999999999  0.45609999999999995  1.0000
  H   H260      1.0  0.15409999999999996  0.3956  0.4633  1.0000
  C   C304      1.0  0.3112  0.436  0.42219999999999996  1.0000
  N   N112      1.0  0.2684  0.5375  0.4213999999999999  1.0000
  H   H261      1.0  0.2978999999999999  0.5337  0.4095  1.0000
  H   H262      1.0  0.2561  0.5669  0.4245  1.0000
  N   N113      1.0  0.1827  0.559  0.4558  1.0000
  H   H263      1.0  0.1548  0.5688  0.4681999999999999  1.0000
  H   H264      1.0  0.20499999999999996  0.5805  0.4478  1.0000
  N   N114      1.0  0.2343  0.3614  0.4389  1.0000
  H   H265      1.0  0.21169999999999997  0.3397  0.44519999999999993  1.0000
  H   H266      1.0  0.2637  0.352  0.4303999999999999  1.0000
  O   O153      1.0  0.0834  0.5531  0.0011  1.0000
  O   O154      1.0  0.08969999999999999  0.4783999999999999  0.0302  1.0000
  O   O155      1.0  0.3409  0.5285  0.0834  1.0000
  O   O156      1.0  0.3257  0.6077  0.0802  1.0000
  C   C305      1.0  0.10839999999999997  0.5193  0.0232  1.0000
  C   C306      1.0  0.15949999999999995  0.531  0.0403  1.0000
  C   C307      1.0  0.1917  0.4923999999999999  0.05139999999999999  1.0000
  C   C308      1.0  0.24139999999999995  0.5029  0.0648  1.0000
  C   C309      1.0  0.2572  0.5522  0.068  1.0000
  C   C310      1.0  0.2239  0.5902  0.0576  1.0000
  C   C311      1.0  0.1761  0.5786  0.0439  1.0000
  H   H267      1.0  0.15409999999999996  0.6044  0.0367  1.0000
  C   C312      1.0  0.3112  0.564  0.0778  1.0000
  N   N115      1.0  0.2684  0.46249999999999997  0.0786  1.0000
  H   H268      1.0  0.2978999999999999  0.46629999999999994  0.09049999999999998  1.0000
  H   H269      1.0  0.2561  0.4331  0.0755  1.0000
  N   N116      1.0  0.1827  0.441  0.04419999999999999  1.0000
  H   H270      1.0  0.1548  0.43119999999999997  0.0318  1.0000
  H   H271      1.0  0.20499999999999996  0.4194999999999999  0.05219999999999999  1.0000
  N   N117      1.0  0.2343  0.6386  0.061099999999999995  1.0000
  H   H272      1.0  0.21169999999999997  0.6603  0.0548  1.0000
  H   H273      1.0  0.2637  0.648  0.0696  1.0000
  O   O157      1.0  0.5834  0.0531  0.5011  1.0000
  O   O158      1.0  0.5897  0.9784  0.5302  1.0000
  O   O159      1.0  0.8409  0.028499999999999994  0.5834  1.0000
  O   O160      1.0  0.8257  0.1077  0.5802  1.0000
  C   C313      1.0  0.6084  0.019299999999999994  0.5232  1.0000
  C   C314      1.0  0.6595  0.031  0.5403  1.0000
  C   C315      1.0  0.6916999999999998  0.9923999999999997  0.5514  1.0000
  C   C316      1.0  0.7414  0.0029  0.5648  1.0000
  C   C317      1.0  0.7571999999999999  0.05219999999999999  0.568  1.0000
  C   C318      1.0  0.7238999999999999  0.0902  0.5576  1.0000
  C   C319      1.0  0.6761  0.0786  0.5439  1.0000
  H   H274      1.0  0.6541  0.10439999999999998  0.5367  1.0000
  C   C320      1.0  0.8112  0.064  0.5778  1.0000
  N   N118      1.0  0.7684  0.9625  0.5786  1.0000
  H   H275      1.0  0.7979  0.9663  0.5905  1.0000
  H   H276      1.0  0.7561  0.9331  0.5755  1.0000
  N   N119      1.0  0.6826999999999998  0.941  0.5442  1.0000
  H   H277      1.0  0.6547999999999998  0.9311999999999998  0.5318  1.0000
  H   H278      1.0  0.705  0.9194999999999998  0.5522  1.0000
  N   N120      1.0  0.7343  0.1386  0.5611  1.0000
  H   H279      1.0  0.7117  0.1603  0.5548  1.0000
  H   H280      1.0  0.7636999999999999  0.148  0.5696  1.0000
  O   O161      1.0  0.4988999999999999  0.9166  0.0531  1.0000
  O   O162      1.0  0.4698  0.9103  0.9784  1.0000
  O   O163      1.0  0.4166  0.6591  0.028499999999999994  1.0000
  O   O164      1.0  0.4198  0.6743  0.1077  1.0000
  C   C321      1.0  0.4768  0.8915999999999998  0.019299999999999994  1.0000
  C   C322      1.0  0.4597  0.8404999999999999  0.031  1.0000
  C   C323      1.0  0.4486  0.8082999999999998  0.9923999999999997  1.0000
  C   C324      1.0  0.4352  0.7585999999999999  0.0029  1.0000
  C   C325      1.0  0.432  0.7428  0.05219999999999999  1.0000
  C   C326      1.0  0.4424  0.7761  0.0902  1.0000
  C   C327      1.0  0.45609999999999995  0.8239  0.0786  1.0000
  H   H281      1.0  0.4633  0.8459  0.10439999999999998  1.0000
  C   C328      1.0  0.42219999999999996  0.6888  0.064  1.0000
  N   N121      1.0  0.4213999999999999  0.7315999999999998  0.9625  1.0000
  H   H282      1.0  0.4095  0.7020999999999998  0.9663  1.0000
  H   H283      1.0  0.4245  0.7439  0.9331  1.0000
  N   N122      1.0  0.4558  0.8172999999999998  0.941  1.0000
  H   H284      1.0  0.4681999999999999  0.8451999999999997  0.9311999999999998  1.0000
  H   H285      1.0  0.4478  0.795  0.9194999999999998  1.0000
  N   N123      1.0  0.4389  0.7657  0.1386  1.0000
  H   H286      1.0  0.44519999999999993  0.7883  0.1603  1.0000
  H   H287      1.0  0.4303999999999999  0.7363  0.148  1.0000
  O   O165      1.0  0.9988999999999998  0.4166  0.5531  1.0000
  O   O166      1.0  0.9697999999999999  0.4103  0.4783999999999999  1.0000
  O   O167      1.0  0.9166  0.1591  0.5285  1.0000
  O   O168      1.0  0.9197999999999998  0.17429999999999998  0.6077  1.0000
  C   C329      1.0  0.9768  0.3916  0.5193  1.0000
  C   C330      1.0  0.9597  0.3405  0.531  1.0000
  C   C331      1.0  0.9486  0.3083  0.4923999999999999  1.0000
  C   C332      1.0  0.9351999999999999  0.2586  0.5029  1.0000
  C   C333      1.0  0.932  0.2428  0.5522  1.0000
  C   C334      1.0  0.9424  0.2761  0.5902  1.0000
  C   C335      1.0  0.9561  0.3239  0.5786  1.0000
  H   H288      1.0  0.9632999999999998  0.3458999999999999  0.6044  1.0000
  C   C336      1.0  0.9221999999999998  0.1888  0.564  1.0000
  N   N124      1.0  0.9214  0.2316  0.46249999999999997  1.0000
  H   H289      1.0  0.9094999999999999  0.20209999999999997  0.46629999999999994  1.0000
  H   H290      1.0  0.9245  0.2439  0.4331  1.0000
  N   N125      1.0  0.9558  0.3173  0.441  1.0000
  H   H291      1.0  0.9681999999999997  0.3452  0.43119999999999997  1.0000
  H   H292      1.0  0.9477999999999998  0.295  0.4194999999999999  1.0000
  N   N126      1.0  0.9388999999999998  0.2657  0.6386  1.0000
  H   H293      1.0  0.9451999999999998  0.2883  0.6603  1.0000
  H   H294      1.0  0.9304  0.23629999999999995  0.648  1.0000
  O   O169      1.0  0.5011  0.4166  0.4469  1.0000
  O   O170      1.0  0.5302  0.4103  0.5216  1.0000
  O   O171      1.0  0.5834  0.1591  0.4715  1.0000
  O   O172      1.0  0.5802  0.17429999999999998  0.3923  1.0000
  C   C337      1.0  0.5232  0.3916  0.4807  1.0000
  C   C338      1.0  0.5403  0.3405  0.469  1.0000
  C   C339      1.0  0.5514  0.3083  0.5076  1.0000
  C   C340      1.0  0.5648  0.2586  0.4971  1.0000
  C   C341      1.0  0.568  0.2428  0.4478  1.0000
  C   C342      1.0  0.5576  0.2761  0.4098  1.0000
  C   C343      1.0  0.5439  0.3239  0.4213999999999999  1.0000
  H   H295      1.0  0.5367  0.3458999999999999  0.3956  1.0000
  C   C344      1.0  0.5778  0.1888  0.436  1.0000
  N   N127      1.0  0.5786  0.2316  0.5375  1.0000
  H   H296      1.0  0.5905  0.20209999999999997  0.5337  1.0000
  H   H297      1.0  0.5755  0.2439  0.5669  1.0000
  N   N128      1.0  0.5442  0.3173  0.559  1.0000
  H   H298      1.0  0.5318  0.3452  0.5688  1.0000
  H   H299      1.0  0.5522  0.295  0.5805  1.0000
  N   N129      1.0  0.5611  0.2657  0.3614  1.0000
  H   H300      1.0  0.5548  0.2883  0.3397  1.0000
  H   H301      1.0  0.5696  0.23629999999999995  0.352  1.0000
  O   O173      1.0  0.0011  0.9166  0.9469  1.0000
  O   O174      1.0  0.0302  0.9103  0.0216  1.0000
  O   O175      1.0  0.0834  0.6591  0.9715  1.0000
  O   O176      1.0  0.0802  0.6743  0.8923  1.0000
  C   C345      1.0  0.0232  0.8915999999999998  0.9807  1.0000
  C   C346      1.0  0.0403  0.8404999999999999  0.969  1.0000
  C   C347      1.0  0.05139999999999999  0.8082999999999998  0.0076  1.0000
  C   C348      1.0  0.0648  0.7585999999999999  0.9971  1.0000
  C   C349      1.0  0.068  0.7428  0.9477999999999998  1.0000
  C   C350      1.0  0.0576  0.7761  0.9097999999999999  1.0000
  C   C351      1.0  0.0439  0.8239  0.9214  1.0000
  H   H302      1.0  0.0367  0.8459  0.8956  1.0000
  C   C352      1.0  0.0778  0.6888  0.936  1.0000
  N   N130      1.0  0.0786  0.7315999999999998  0.0375  1.0000
  H   H303      1.0  0.09049999999999998  0.7020999999999998  0.0337  1.0000
  H   H304      1.0  0.0755  0.7439  0.0669  1.0000
  N   N131      1.0  0.04419999999999999  0.8172999999999998  0.05899999999999998  1.0000
  H   H305      1.0  0.0318  0.8451999999999997  0.0688  1.0000
  H   H306      1.0  0.05219999999999999  0.795  0.0805  1.0000
  N   N132      1.0  0.061099999999999995  0.7657  0.8614  1.0000
  H   H307      1.0  0.0548  0.7883  0.8397  1.0000
  H   H308      1.0  0.0696  0.7363  0.8519999999999999  1.0000
  O   O177      1.0  0.9988999999999998  0.5834  0.9469  1.0000
  O   O178      1.0  0.9697999999999999  0.5897  0.0216  1.0000
  O   O179      1.0  0.9166  0.8409  0.9715  1.0000
  O   O180      1.0  0.9197999999999998  0.8257  0.8923  1.0000
  C   C353      1.0  0.9768  0.6084  0.9807  1.0000
  C   C354      1.0  0.9597  0.6595  0.969  1.0000
  C   C355      1.0  0.9486  0.6916999999999998  0.0076  1.0000
  C   C356      1.0  0.9351999999999999  0.7414  0.9971  1.0000
  C   C357      1.0  0.932  0.7571999999999999  0.9477999999999998  1.0000
  C   C358      1.0  0.9424  0.7238999999999999  0.9097999999999999  1.0000
  C   C359      1.0  0.9561  0.6761  0.9214  1.0000
  H   H309      1.0  0.9632999999999998  0.6541  0.8956  1.0000
  C   C360      1.0  0.9221999999999998  0.8112  0.936  1.0000
  N   N133      1.0  0.9214  0.7684  0.0375  1.0000
  H   H310      1.0  0.9094999999999999  0.7979  0.0337  1.0000
  H   H311      1.0  0.9245  0.7561  0.0669  1.0000
  N   N134      1.0  0.9558  0.6826999999999998  0.05899999999999998  1.0000
  H   H312      1.0  0.9681999999999997  0.6547999999999998  0.0688  1.0000
  H   H313      1.0  0.9477999999999998  0.705  0.0805  1.0000
  N   N135      1.0  0.9388999999999998  0.7343  0.8614  1.0000
  H   H314      1.0  0.9451999999999998  0.7117  0.8397  1.0000
  H   H315      1.0  0.9304  0.7636999999999999  0.8519999999999999  1.0000
  O   O181      1.0  0.4988999999999999  0.0834  0.4469  1.0000
  O   O182      1.0  0.4698  0.08969999999999999  0.5216  1.0000
  O   O183      1.0  0.4166  0.3409  0.4715  1.0000
  O   O184      1.0  0.4198  0.3257  0.3923  1.0000
  C   C361      1.0  0.4768  0.10839999999999997  0.4807  1.0000
  C   C362      1.0  0.4597  0.15949999999999995  0.469  1.0000
  C   C363      1.0  0.4486  0.1917  0.5076  1.0000
  C   C364      1.0  0.4352  0.24139999999999995  0.4971  1.0000
  C   C365      1.0  0.432  0.2572  0.4478  1.0000
  C   C366      1.0  0.4424  0.2239  0.4098  1.0000
  C   C367      1.0  0.45609999999999995  0.1761  0.4213999999999999  1.0000
  H   H316      1.0  0.4633  0.15409999999999996  0.3956  1.0000
  C   C368      1.0  0.42219999999999996  0.3112  0.436  1.0000
  N   N136      1.0  0.4213999999999999  0.2684  0.5375  1.0000
  H   H317      1.0  0.4095  0.2978999999999999  0.5337  1.0000
  H   H318      1.0  0.4245  0.2561  0.5669  1.0000
  N   N137      1.0  0.4558  0.1827  0.559  1.0000
  H   H319      1.0  0.4681999999999999  0.1548  0.5688  1.0000
  H   H320      1.0  0.4478  0.20499999999999996  0.5805  1.0000
  N   N138      1.0  0.4389  0.2343  0.3614  1.0000
  H   H321      1.0  0.44519999999999993  0.21169999999999997  0.3397  1.0000
  H   H322      1.0  0.4303999999999999  0.2637  0.352  1.0000
  O   O185      1.0  0.0011  0.0834  0.5531  1.0000
  O   O186      1.0  0.0302  0.08969999999999999  0.4783999999999999  1.0000
  O   O187      1.0  0.0834  0.3409  0.5285  1.0000
  O   O188      1.0  0.0802  0.3257  0.6077  1.0000
  C   C369      1.0  0.0232  0.10839999999999997  0.5193  1.0000
  C   C370      1.0  0.0403  0.15949999999999995  0.531  1.0000
  C   C371      1.0  0.05139999999999999  0.1917  0.4923999999999999  1.0000
  C   C372      1.0  0.0648  0.24139999999999995  0.5029  1.0000
  C   C373      1.0  0.068  0.2572  0.5522  1.0000
  C   C374      1.0  0.0576  0.2239  0.5902  1.0000
  C   C375      1.0  0.0439  0.1761  0.5786  1.0000
  H   H323      1.0  0.0367  0.15409999999999996  0.6044  1.0000
  C   C376      1.0  0.0778  0.3112  0.564  1.0000
  N   N139      1.0  0.0786  0.2684  0.46249999999999997  1.0000
  H   H324      1.0  0.09049999999999998  0.2978999999999999  0.46629999999999994  1.0000
  H   H325      1.0  0.0755  0.2561  0.4331  1.0000
  N   N140      1.0  0.04419999999999999  0.1827  0.441  1.0000
  H   H326      1.0  0.0318  0.1548  0.43119999999999997  1.0000
  H   H327      1.0  0.05219999999999999  0.20499999999999996  0.4194999999999999  1.0000
  N   N141      1.0  0.061099999999999995  0.2343  0.6386  1.0000
  H   H328      1.0  0.0548  0.21169999999999997  0.6603  1.0000
  H   H329      1.0  0.0696  0.2637  0.648  1.0000
  O   O189      1.0  0.5011  0.5834  0.0531  1.0000
  O   O190      1.0  0.5302  0.5897  0.9784  1.0000
  O   O191      1.0  0.5834  0.8409  0.028499999999999994  1.0000
  O   O192      1.0  0.5802  0.8257  0.1077  1.0000
  C   C377      1.0  0.5232  0.6084  0.019299999999999994  1.0000
  C   C378      1.0  0.5403  0.6595  0.031  1.0000
  C   C379      1.0  0.5514  0.6916999999999998  0.9923999999999997  1.0000
  C   C380      1.0  0.5648  0.7414  0.0029  1.0000
  C   C381      1.0  0.568  0.7571999999999999  0.05219999999999999  1.0000
  C   C382      1.0  0.5576  0.7238999999999999  0.0902  1.0000
  C   C383      1.0  0.5439  0.6761  0.0786  1.0000
  H   H330      1.0  0.5367  0.6541  0.10439999999999998  1.0000
  C   C384      1.0  0.5778  0.8112  0.064  1.0000
  N   N142      1.0  0.5786  0.7684  0.9625  1.0000
  H   H331      1.0  0.5905  0.7979  0.9663  1.0000
  H   H332      1.0  0.5755  0.7561  0.9331  1.0000
  N   N143      1.0  0.5442  0.6826999999999998  0.941  1.0000
  H   H333      1.0  0.5318  0.6547999999999998  0.9311999999999998  1.0000
  H   H334      1.0  0.5522  0.705  0.9194999999999998  1.0000
  N   N144      1.0  0.5611  0.7343  0.1386  1.0000
  H   H335      1.0  0.5548  0.7117  0.1603  1.0000
  H   H336      1.0  0.5696  0.7636999999999999  0.148  1.0000
  Nd  Nd1       1.0  0.9152499999999998  0.41525  0.08474999999999999  1.0000
  Nd  Nd2       1.0  0.41525  0.9152499999999998  0.58475  1.0000
  Nd  Nd3       1.0  0.58475  0.58475  0.58475  1.0000
  Nd  Nd4       1.0  0.08474999999999999  0.08474999999999999  0.08474999999999999  1.0000
  Nd  Nd5       1.0  0.08474999999999999  0.9152499999999998  0.41525  1.0000
  Nd  Nd6       1.0  0.58475  0.41525  0.9152499999999998  1.0000
  Nd  Nd7       1.0  0.41525  0.08474999999999999  0.9152499999999998  1.0000
  Nd  Nd8       1.0  0.9152499999999998  0.58475  0.41525  1.0000
  Nd  Nd9       1.0  0.08474999999999999  0.58475  0.9152499999999998  1.0000
  Nd  Nd10      1.0  0.58475  0.08474999999999999  0.41525  1.0000
  Nd  Nd11      1.0  0.41525  0.41525  0.41525  1.0000
  Nd  Nd12      1.0  0.9152499999999998  0.9152499999999998  0.9152499999999998  1.0000
  Nd  Nd13      1.0  0.9152499999999998  0.08474999999999999  0.58475  1.0000
  Nd  Nd14      1.0  0.41525  0.58475  0.08474999999999999  1.0000
  Nd  Nd15      1.0  0.58475  0.9152499999999998  0.08474999999999999  1.0000
  Nd  Nd16      1.0  0.08474999999999999  0.41525  0.58475  1.0000
  Nd  Nd17      1.0  0.0  0.5  0.0  1.0000
  Nd  Nd18      1.0  0.5  0.0  0.5  1.0000
  Nd  Nd19      1.0  0.5  0.5  0.5  1.0000
  Nd  Nd20      1.0  0.0  0.0  0.0  1.0000
  Nd  Nd21      1.0  0.0  0.0  0.5  1.0000
  Nd  Nd22      1.0  0.5  0.5  0.0  1.0000
  Nd  Nd23      1.0  0.5  0.0  0.0  1.0000
  Nd  Nd24      1.0  0.0  0.5  0.5  1.0000
