# generated using pymatgen
data_Cr102H408C816S102O745F34
_symmetry_space_group_name_H-M   'P 1'
_cell_length_a   62.83990000
_cell_length_b   62.83990000
_cell_length_c   62.83990000
_cell_angle_alpha   60.00000000
_cell_angle_beta   60.00000000
_cell_angle_gamma   60.00000000
_symmetry_Int_Tables_number   1
_chemical_formula_structural   Cr102H408C816S102O745F34
_chemical_formula_sum   'Cr204 H816 C1632 S204 O1490 F68'
_cell_volume   175465.38673396
_cell_formula_units_Z   2
loop_
 _symmetry_equiv_pos_site_id
 _symmetry_equiv_pos_as_xyz
  1  'x, y, z'
loop_
 _atom_site_type_symbol
 _atom_site_label
 _atom_site_symmetry_multiplicity
 _atom_site_fract_x
 _atom_site_fract_y
 _atom_site_fract_z
 _atom_site_occupancy
  Cr  Cr1  1  0.00000000  0.49999900  0.71590000  1.0
  Cr  Cr2  1  1.00000000  0.71589900  0.28410100  1.0
  Cr  Cr3  1  1.00000000  0.28409900  0.50000000  1.0
  Cr  Cr4  1  0.00000000  0.28409900  0.71590000  1.0
  Cr  Cr5  1  0.00000000  0.49999900  0.28410100  1.0
  Cr  Cr6  1  0.00000000  0.71590000  0.50000000  1.0
  Cr  Cr7  1  0.01042930  0.79411000  0.84773000  1.0
  Cr  Cr8  1  0.01043020  0.84772900  0.79410900  1.0
  Cr  Cr9  1  0.01043080  0.84772900  0.84773000  1.0
  Cr  Cr10  1  0.03562920  0.49019000  0.65383000  1.0
  Cr  Cr11  1  0.03563020  0.65382900  0.49018900  1.0
  Cr  Cr12  1  0.03563030  0.49018900  0.32035000  1.0
  Cr  Cr13  1  0.03563040  0.65383000  0.32035000  1.0
  Cr  Cr14  1  0.03563060  0.32034900  0.49018900  1.0
  Cr  Cr15  1  0.03563060  0.32034900  0.65383000  1.0
  Cr  Cr16  1  0.09319910  0.82371900  0.32188000  1.0
  Cr  Cr17  1  0.09319930  0.32187900  0.82372000  1.0
  Cr  Cr18  1  0.09319930  0.32188100  0.26120000  1.0
  Cr  Cr19  1  0.09319970  0.26120000  0.82372000  1.0
  Cr  Cr20  1  0.09320020  0.26119900  0.32188000  1.0
  Cr  Cr21  1  0.09320050  0.82371900  0.26120000  1.0
  Cr  Cr22  1  0.11381900  0.11382000  0.60876000  1.0
  Cr  Cr23  1  0.11381900  0.60876000  0.11381900  1.0
  Cr  Cr24  1  0.11381900  0.66360100  0.11381900  1.0
  Cr  Cr25  1  0.11382000  0.11382000  0.66359900  1.0
  Cr  Cr26  1  0.11382000  0.66359900  0.60876000  1.0
  Cr  Cr27  1  0.11382000  0.60876000  0.66359900  1.0
  Cr  Cr28  1  0.13331900  0.29931900  0.29932000  1.0
  Cr  Cr29  1  0.13332000  0.76803900  0.29932000  1.0
  Cr  Cr30  1  0.13332000  0.29932100  0.76803900  1.0
  Cr  Cr31  1  0.14579000  0.60421000  0.60420900  1.0
  Cr  Cr32  1  0.14579000  0.14579000  0.60420900  1.0
  Cr  Cr33  1  0.14579100  0.60420900  0.14579000  1.0
  Cr  Cr34  1  0.15227000  0.15227000  0.98957000  1.0
  Cr  Cr35  1  0.15227000  0.15227000  0.20589000  1.0
  Cr  Cr36  1  0.15227000  0.20588900  0.15227100  1.0
  Cr  Cr37  1  0.15227000  0.20588900  0.98957000  1.0
  Cr  Cr38  1  0.15227000  0.98956900  0.20589000  1.0
  Cr  Cr39  1  0.15227100  0.98956900  0.15227100  1.0
  Cr  Cr40  1  0.17627900  0.73880000  0.67811900  1.0
  Cr  Cr41  1  0.17627900  0.67812000  0.73879900  1.0
  Cr  Cr42  1  0.17628000  0.67811900  0.90680000  1.0
  Cr  Cr43  1  0.17628000  0.90680000  0.67811900  1.0
  Cr  Cr44  1  0.17628100  0.73879900  0.90680000  1.0
  Cr  Cr45  1  0.17628100  0.90679900  0.73879900  1.0
  Cr  Cr46  1  0.20588900  0.15227000  0.98957000  1.0
  Cr  Cr47  1  0.20588900  0.15227000  0.15227100  1.0
  Cr  Cr48  1  0.20588900  0.98956900  0.15227100  1.0
  Cr  Cr49  1  0.23196000  0.86668000  0.70068000  1.0
  Cr  Cr50  1  0.23196000  0.70068000  0.86668000  1.0
  Cr  Cr51  1  0.23196000  0.70067900  0.70068000  1.0
  Cr  Cr52  1  0.26119900  0.09320040  0.82372000  1.0
  Cr  Cr53  1  0.26119900  0.82372000  0.09320080  1.0
  Cr  Cr54  1  0.26119900  0.32187900  0.82372000  1.0
  Cr  Cr55  1  0.26119900  0.82371900  0.32188000  1.0
  Cr  Cr56  1  0.26120000  0.32188000  0.09320080  1.0
  Cr  Cr57  1  0.26120100  0.09319930  0.32188000  1.0
  Cr  Cr58  1  0.28410000  0.71590000  0.50000000  1.0
  Cr  Cr59  1  0.28410000  1.00000000  0.71590000  1.0
  Cr  Cr60  1  0.28410000  0.00000000  0.50000000  1.0
  Cr  Cr61  1  0.28410000  0.71589900  0.00000000  1.0
  Cr  Cr62  1  0.28410000  0.50000000  0.00000000  1.0
  Cr  Cr63  1  0.28410000  0.49999900  0.71590000  1.0
  Cr  Cr64  1  0.29931800  0.13332100  0.29932000  1.0
  Cr  Cr65  1  0.29931900  0.29931900  0.13332100  1.0
  Cr  Cr66  1  0.29931900  0.29932100  0.76803900  1.0
  Cr  Cr67  1  0.29932000  0.76803900  0.13332100  1.0
  Cr  Cr68  1  0.29932000  0.13332000  0.76803900  1.0
  Cr  Cr69  1  0.29932000  0.76803900  0.29932000  1.0
  Cr  Cr70  1  0.32034900  0.03562980  0.65383000  1.0
  Cr  Cr71  1  0.32034900  0.65383000  0.03562950  1.0
  Cr  Cr72  1  0.32035000  0.03562990  0.49018900  1.0
  Cr  Cr73  1  0.32035000  0.49019000  0.65383000  1.0
  Cr  Cr74  1  0.32035100  0.49018900  0.03562950  1.0
  Cr  Cr75  1  0.32035100  0.65382900  0.49018900  1.0
  Cr  Cr76  1  0.32187900  0.09320030  0.26120000  1.0
  Cr  Cr77  1  0.32187900  0.26120000  0.82372000  1.0
  Cr  Cr78  1  0.32187900  0.26119900  0.09320080  1.0
  Cr  Cr79  1  0.32188000  0.09320040  0.82372000  1.0
  Cr  Cr80  1  0.32188000  0.82372000  0.09320080  1.0
  Cr  Cr81  1  0.32188000  0.82371900  0.26120000  1.0
  Cr  Cr82  1  0.33640000  0.88617800  0.39124100  1.0
  Cr  Cr83  1  0.33640000  0.39123900  0.88618000  1.0
  Cr  Cr84  1  0.33640000  0.88617900  0.88618000  1.0
  Cr  Cr85  1  0.34616900  0.67965000  0.50981000  1.0
  Cr  Cr86  1  0.34617000  0.50981000  0.96436900  1.0
  Cr  Cr87  1  0.34617000  0.50981000  0.67964900  1.0
  Cr  Cr88  1  0.34617000  0.96437000  0.67964900  1.0
  Cr  Cr89  1  0.34617000  0.96436900  0.50981000  1.0
  Cr  Cr90  1  0.34617100  0.67964900  0.96436900  1.0
  Cr  Cr91  1  0.39123900  0.33640000  0.88618000  1.0
  Cr  Cr92  1  0.39123900  0.88617900  0.33640000  1.0
  Cr  Cr93  1  0.39124000  0.88617900  0.88618000  1.0
  Cr  Cr94  1  0.39578900  0.39579000  0.85421000  1.0
  Cr  Cr95  1  0.39578900  0.85420900  0.85421000  1.0
  Cr  Cr96  1  0.39579000  0.85420900  0.39579000  1.0
  Cr  Cr97  1  0.49018900  0.03563060  0.32035000  1.0
  Cr  Cr98  1  0.49018900  0.32035000  0.03562950  1.0
  Cr  Cr99  1  0.49018900  0.32034900  0.65383000  1.0
  Cr  Cr100  1  0.49018900  0.65383000  0.32035000  1.0
  Cr  Cr101  1  0.49019000  0.03562980  0.65383000  1.0
  Cr  Cr102  1  0.49019000  0.65383000  0.03562950  1.0
  Cr  Cr103  1  0.49999900  0.00000000  0.28410100  1.0
  Cr  Cr104  1  0.49999900  0.28410000  0.00000000  1.0
  Cr  Cr105  1  0.50000000  0.28409900  0.71590000  1.0
  Cr  Cr106  1  0.50000000  0.71589900  0.28410100  1.0
  Cr  Cr107  1  0.50000100  1.00000000  0.71590000  1.0
  Cr  Cr108  1  0.50000100  0.71589900  0.00000000  1.0
  Cr  Cr109  1  0.50981000  0.67964900  0.96436900  1.0
  Cr  Cr110  1  0.50981000  0.34617100  0.96436900  1.0
  Cr  Cr111  1  0.50981000  0.96436900  0.34617000  1.0
  Cr  Cr112  1  0.50981000  0.67964900  0.34617000  1.0
  Cr  Cr113  1  0.50981000  0.96437000  0.67964900  1.0
  Cr  Cr114  1  0.50981100  0.34616900  0.67964900  1.0
  Cr  Cr115  1  0.60420900  0.60420900  0.14579000  1.0
  Cr  Cr116  1  0.60420900  0.14579000  0.60420900  1.0
  Cr  Cr117  1  0.60421000  0.14579000  0.14579000  1.0
  Cr  Cr118  1  0.60876000  0.11382000  0.11381900  1.0
  Cr  Cr119  1  0.60876000  0.11382000  0.66359900  1.0
  Cr  Cr120  1  0.60876000  0.66360100  0.11381900  1.0
  Cr  Cr121  1  0.65383000  0.03562990  0.49018900  1.0
  Cr  Cr122  1  0.65383000  0.03563060  0.32035000  1.0
  Cr  Cr123  1  0.65383000  0.49018900  0.03562950  1.0
  Cr  Cr124  1  0.65383000  0.32034900  0.49018900  1.0
  Cr  Cr125  1  0.65383000  0.32035000  0.03562950  1.0
  Cr  Cr126  1  0.65383000  0.49018900  0.32035000  1.0
  Cr  Cr127  1  0.66359900  0.11382000  0.60876000  1.0
  Cr  Cr128  1  0.66359900  0.60876000  0.11381900  1.0
  Cr  Cr129  1  0.66360100  0.11382000  0.11381900  1.0
  Cr  Cr130  1  0.67811900  0.17628100  0.73879900  1.0
  Cr  Cr131  1  0.67811900  0.73879900  0.90680000  1.0
  Cr  Cr132  1  0.67812000  0.17628100  0.90680000  1.0
  Cr  Cr133  1  0.67812000  0.90679900  0.73879900  1.0
  Cr  Cr134  1  0.67812000  0.90680000  0.17628100  1.0
  Cr  Cr135  1  0.67812000  0.73879800  0.17628100  1.0
  Cr  Cr136  1  0.67964900  0.34617100  0.96436900  1.0
  Cr  Cr137  1  0.67964900  0.50981000  0.96436900  1.0
  Cr  Cr138  1  0.67964900  0.96436900  0.50981000  1.0
  Cr  Cr139  1  0.67965000  0.34617000  0.50981000  1.0
  Cr  Cr140  1  0.67965000  0.96436900  0.34617000  1.0
  Cr  Cr141  1  0.67965000  0.50981000  0.34617000  1.0
  Cr  Cr142  1  0.70067900  0.86668000  0.70068000  1.0
  Cr  Cr143  1  0.70067900  0.23195900  0.70068000  1.0
  Cr  Cr144  1  0.70067900  0.23195900  0.86668000  1.0
  Cr  Cr145  1  0.70067900  0.70068000  0.23195900  1.0
  Cr  Cr146  1  0.70068000  0.70068000  0.86668000  1.0
  Cr  Cr147  1  0.70068000  0.86667900  0.23195900  1.0
  Cr  Cr148  1  0.71589900  0.00000000  0.50000000  1.0
  Cr  Cr149  1  0.71589900  0.28409900  0.50000000  1.0
  Cr  Cr150  1  0.71589900  0.50000000  0.00000000  1.0
  Cr  Cr151  1  0.71589900  0.49999900  0.28410100  1.0
  Cr  Cr152  1  0.71590000  0.00000000  0.28410100  1.0
  Cr  Cr153  1  0.71590000  0.28410000  0.00000000  1.0
  Cr  Cr154  1  0.73879900  0.17628100  0.90680000  1.0
  Cr  Cr155  1  0.73879900  0.90680000  0.17628100  1.0
  Cr  Cr156  1  0.73880000  0.67811900  0.90680000  1.0
  Cr  Cr157  1  0.73880000  0.17628000  0.67811900  1.0
  Cr  Cr158  1  0.73880000  0.67812000  0.17628100  1.0
  Cr  Cr159  1  0.73880000  0.90680000  0.67811900  1.0
  Cr  Cr160  1  0.76804000  0.29931900  0.29932000  1.0
  Cr  Cr161  1  0.76804000  0.13332100  0.29932000  1.0
  Cr  Cr162  1  0.76804000  0.29931900  0.13332100  1.0
  Cr  Cr163  1  0.79410900  0.01043000  0.84773000  1.0
  Cr  Cr164  1  0.79411000  0.84772900  0.01042910  1.0
  Cr  Cr165  1  0.79411000  0.84772900  0.84773000  1.0
  Cr  Cr166  1  0.82371800  0.32188000  0.09320080  1.0
  Cr  Cr167  1  0.82371900  0.09319930  0.32188000  1.0
  Cr  Cr168  1  0.82371900  0.32188100  0.26120000  1.0
  Cr  Cr169  1  0.82372000  0.09320030  0.26120000  1.0
  Cr  Cr170  1  0.82372000  0.26119900  0.09320080  1.0
  Cr  Cr171  1  0.82372000  0.26119900  0.32188000  1.0
  Cr  Cr172  1  0.84772900  0.01043000  0.79410900  1.0
  Cr  Cr173  1  0.84772900  0.79411000  0.84773000  1.0
  Cr  Cr174  1  0.84772900  0.79411000  0.01042910  1.0
  Cr  Cr175  1  0.84772900  0.84772900  0.79410900  1.0
  Cr  Cr176  1  0.84773000  0.01043000  0.84773000  1.0
  Cr  Cr177  1  0.84773100  0.84772900  0.01042910  1.0
  Cr  Cr178  1  0.85420900  0.39579000  0.39579000  1.0
  Cr  Cr179  1  0.85421000  0.39579000  0.85421000  1.0
  Cr  Cr180  1  0.85421100  0.85420900  0.39579000  1.0
  Cr  Cr181  1  0.86667900  0.23195900  0.70068000  1.0
  Cr  Cr182  1  0.86667900  0.70067900  0.70068000  1.0
  Cr  Cr183  1  0.86667900  0.70068000  0.23195900  1.0
  Cr  Cr184  1  0.88617900  0.33639900  0.39124100  1.0
  Cr  Cr185  1  0.88617900  0.39123900  0.33640000  1.0
  Cr  Cr186  1  0.88617900  0.33640000  0.88618000  1.0
  Cr  Cr187  1  0.88618000  0.39123900  0.88618000  1.0
  Cr  Cr188  1  0.88618000  0.88617800  0.39124100  1.0
  Cr  Cr189  1  0.88618000  0.88617900  0.33640000  1.0
  Cr  Cr190  1  0.90679900  0.67812000  0.73879900  1.0
  Cr  Cr191  1  0.90679900  0.17628100  0.73879900  1.0
  Cr  Cr192  1  0.90679900  0.73880000  0.67811900  1.0
  Cr  Cr193  1  0.90679900  0.73879800  0.17628100  1.0
  Cr  Cr194  1  0.90679900  0.67812000  0.17628100  1.0
  Cr  Cr195  1  0.90680000  0.17628000  0.67811900  1.0
  Cr  Cr196  1  0.96436900  0.34617000  0.50981000  1.0
  Cr  Cr197  1  0.96436900  0.50981000  0.34617000  1.0
  Cr  Cr198  1  0.96436900  0.50981000  0.67964900  1.0
  Cr  Cr199  1  0.96436900  0.67965000  0.50981000  1.0
  Cr  Cr200  1  0.96437000  0.67964900  0.34617000  1.0
  Cr  Cr201  1  0.96437100  0.34616900  0.67964900  1.0
  Cr  Cr202  1  0.98956900  0.15227000  0.20589000  1.0
  Cr  Cr203  1  0.98956900  0.20588900  0.15227100  1.0
  Cr  Cr204  1  0.98957000  0.15227000  0.15227100  1.0
  H  H1  1  0.00210224  0.79534516  0.42746610  1.0
  H  H2  1  0.00210312  0.42746387  0.27508741  1.0
  H  H3  1  0.00210391  0.27508428  0.79534484  1.0
  H  H4  1  0.00523625  0.87084930  0.24642761  1.0
  H  H5  1  0.01175093  0.19611317  0.56841277  1.0
  H  H6  1  0.01175384  0.72372190  0.19611003  1.0
  H  H7  1  0.01175508  0.56841292  0.72372381  1.0
  H  H8  1  0.01541649  0.39141217  0.28422380  1.0
  H  H9  1  0.01541693  0.28422176  0.80894768  1.0
  H  H10  1  0.01543630  0.71700406  0.17381655  1.0
  H  H11  1  0.01543992  0.59374168  0.71700746  1.0
  H  H12  1  0.01850770  0.84592700  0.35060800  1.0
  H  H13  1  0.01850850  0.35060900  0.84592500  1.0
  H  H14  1  0.01850920  0.28495600  0.35060800  1.0
  H  H15  1  0.02641627  0.10919306  0.74164915  1.0
  H  H16  1  0.03063840  0.14111000  0.63063200  1.0
  H  H17  1  0.03063860  0.63063000  0.14111100  1.0
  H  H18  1  0.03063910  0.69761800  0.63063200  1.0
  H  H19  1  0.03902830  0.58549300  0.33061100  1.0
  H  H20  1  0.03902860  0.54486700  0.58549300  1.0
  H  H21  1  0.03902860  0.33061100  0.58549300  1.0
  H  H22  1  0.04219220  0.41789300  0.37847500  1.0
  H  H23  1  0.04219220  0.66143900  0.37847500  1.0
  H  H24  1  0.04219240  0.41789200  0.66143900  1.0
  H  H25  1  0.04299264  0.12804094  0.26023539  1.0
  H  H26  1  0.04299541  0.06873021  0.12803888  1.0
  H  H27  1  0.04477374  0.36020648  0.50009156  1.0
  H  H28  1  0.04919712  0.44616655  0.78493320  1.0
  H  H29  1  0.04919874  0.78492908  0.21969949  1.0
  H  H30  1  0.04920440  0.21969738  0.44616242  1.0
  H  H31  1  0.05046495  0.62383418  0.52902428  1.0
  H  H32  1  0.05046925  0.52902139  0.29667973  1.0
  H  H33  1  0.05055540  0.09164380  0.21310900  1.0
  H  H34  1  0.05055560  0.21310800  0.09164360  1.0
  H  H35  1  0.05055570  0.21310800  0.14469300  1.0
  H  H36  1  0.05732948  0.51228981  0.18619096  1.0
  H  H37  1  0.05733301  0.18618972  0.74418749  1.0
  H  H38  1  0.05734162  0.74418454  0.51229103  1.0
  H  H39  1  0.05948007  0.90792925  0.82925733  1.0
  H  H40  1  0.05959825  0.69648328  0.38421042  1.0
  H  H41  1  0.05973647  0.35970805  0.69634936  1.0
  H  H42  1  0.06091010  0.78421100  0.26341400  1.0
  H  H43  1  0.06091090  0.26341300  0.78421000  1.0
  H  H44  1  0.06091100  0.39146500  0.26341400  1.0
  H  H45  1  0.06091120  0.39146500  0.78421000  1.0
  H  H46  1  0.06091130  0.26341300  0.39146500  1.0
  H  H47  1  0.06091170  0.78420900  0.39146500  1.0
  H  H48  1  0.06763000  0.62636900  0.26217300  1.0
  H  H49  1  0.06763020  0.26217200  0.62636900  1.0
  H  H50  1  0.06763040  0.62636900  0.54382700  1.0
  H  H51  1  0.06763070  0.54382700  0.62636900  1.0
  H  H52  1  0.06763080  0.26217300  0.54382700  1.0
  H  H53  1  0.06763090  0.54382700  0.26217300  1.0
  H  H54  1  0.07152420  0.87572900  0.74184900  1.0
  H  H55  1  0.07152450  0.74184800  0.87572900  1.0
  H  H56  1  0.07152520  0.81089600  0.74184900  1.0
  H  H57  1  0.07587690  0.55518800  0.69393300  1.0
  H  H58  1  0.07587740  0.17500100  0.69393300  1.0
  H  H59  1  0.07587740  0.69393200  0.55518800  1.0
  H  H60  1  0.07587780  0.69393100  0.17500200  1.0
  H  H61  1  0.07587850  0.55518700  0.17500200  1.0
  H  H62  1  0.07587860  0.17500100  0.55518800  1.0
  H  H63  1  0.08030889  0.10010537  0.10603871  1.0
  H  H64  1  0.08359100  0.41321200  0.68930600  1.0
  H  H65  1  0.08359160  0.31389000  0.41321200  1.0
  H  H66  1  0.08359170  0.68930500  0.41321200  1.0
  H  H67  1  0.08359180  0.41321100  0.31389100  1.0
  H  H68  1  0.08359240  0.68930500  0.31389100  1.0
  H  H69  1  0.08359250  0.31389000  0.68930600  1.0
  H  H70  1  0.08548994  0.37985382  0.40436795  1.0
  H  H71  1  0.08646525  0.91278623  0.31507163  1.0
  H  H72  1  0.09164210  0.14469300  0.21310900  1.0
  H  H73  1  0.09164250  0.05055480  0.21310900  1.0
  H  H74  1  0.09164270  0.21310800  0.14469300  1.0
  H  H75  1  0.09164290  0.14469300  0.05055490  1.0
  H  H76  1  0.09164290  0.05055440  0.14469300  1.0
  H  H77  1  0.09164300  0.21310800  0.05055490  1.0
  H  H78  1  0.09947030  0.83760107  0.84564027  1.0
  H  H79  1  0.09947256  0.71728716  0.83760008  1.0
  H  H80  1  0.10035600  0.36804800  0.71712400  1.0
  H  H81  1  0.10035600  0.71712500  0.36804800  1.0
  H  H82  1  0.10035600  0.71712500  0.31447000  1.0
  H  H83  1  0.10035600  0.31447000  0.71712400  1.0
  H  H84  1  0.10035700  0.36804800  0.31447000  1.0
  H  H85  1  0.10035700  0.31447100  0.36804800  1.0
  H  H86  1  0.10240100  0.22310400  0.61311400  1.0
  H  H87  1  0.10240200  0.61311500  0.56138000  1.0
  H  H88  1  0.10240200  0.61311400  0.22310300  1.0
  H  H89  1  0.10240300  0.22310300  0.56138000  1.0
  H  H90  1  0.10240300  0.56138000  0.22310300  1.0
  H  H91  1  0.10240300  0.56138000  0.61311400  1.0
  H  H92  1  0.10919166  0.62274143  0.74164820  1.0
  H  H93  1  0.10919405  0.74164867  0.02641750  1.0
  H  H94  1  0.11046700  0.28452300  0.21613200  1.0
  H  H95  1  0.11046800  0.21613200  0.88887700  1.0
  H  H96  1  0.11046800  0.88887700  0.21613200  1.0
  H  H97  1  0.11112200  0.88953200  0.78386700  1.0
  H  H98  1  0.11112200  0.71547700  0.88953200  1.0
  H  H99  1  0.11112200  0.78386700  0.88953200  1.0
  H  H100  1  0.11112200  0.71547600  0.78386700  1.0
  H  H101  1  0.11112200  0.78386800  0.71547700  1.0
  H  H102  1  0.11112200  0.88953300  0.71547700  1.0
  H  H103  1  0.12234222  0.19627318  0.04371593  1.0
  H  H104  1  0.12234226  0.04371331  0.13766784  1.0
  H  H105  1  0.12427000  0.18910300  0.25815000  1.0
  H  H106  1  0.12427000  0.25815100  0.18910300  1.0
  H  H107  1  0.12427000  0.92847500  0.18910300  1.0
  H  H108  1  0.12427100  0.18910300  0.92847500  1.0
  H  H109  1  0.12427100  0.25815000  0.92847500  1.0
  H  H110  1  0.12427200  0.92847500  0.25815000  1.0
  H  H111  1  0.13264786  0.15852720  0.37008118  1.0
  H  H112  1  0.13265097  0.37008235  0.83874090  1.0
  H  H113  1  0.13265685  0.83874393  0.15851743  1.0
  H  H114  1  0.13551512  0.78513520  0.70001155  1.0
  H  H115  1  0.14089686  0.16677298  0.88280519  1.0
  H  H116  1  0.14089777  0.30953427  0.16676299  1.0
  H  H117  1  0.14089831  0.88280496  0.30952687  1.0
  H  H118  1  0.14111000  0.69761800  0.63063200  1.0
  H  H119  1  0.14111200  0.03063790  0.63063200  1.0
  H  H120  1  0.14111200  0.63063100  0.03063820  1.0
  H  H121  1  0.14469300  0.21310800  0.09164360  1.0
  H  H122  1  0.14469300  0.09164380  0.21310900  1.0
  H  H123  1  0.14469400  0.09164330  0.05055490  1.0
  H  H124  1  0.14828700  0.29679336  0.87312379  1.0
  H  H125  1  0.14828728  0.18179372  0.29679301  1.0
  H  H126  1  0.15027332  0.00640238  0.24296262  1.0
  H  H127  1  0.15407300  0.98149100  0.71504400  1.0
  H  H128  1  0.15407300  0.64939100  0.71504400  1.0
  H  H129  1  0.15407300  0.71504400  0.64939100  1.0
  H  H130  1  0.15407400  0.64939000  0.98149100  1.0
  H  H131  1  0.15407400  0.98149100  0.64939100  1.0
  H  H132  1  0.15407400  0.71504300  0.98149100  1.0
  H  H133  1  0.16239797  0.90052913  0.15435747  1.0
  H  H134  1  0.16239803  0.15435905  0.28271287  1.0
  H  H135  1  0.16240198  0.28271301  0.90052366  1.0
  H  H136  1  0.16332691  0.51802331  0.08792776  1.0
  H  H137  1  0.16332736  0.73072356  0.51802552  1.0
  H  H138  1  0.16332857  0.08792335  0.73072306  1.0
  H  H139  1  0.16405333  0.03658895  0.57355764  1.0
  H  H140  1  0.16405357  0.72580118  0.03659163  1.0
  H  H141  1  0.16405419  0.57355306  0.72580109  1.0
  H  H142  1  0.16418100  0.85172500  0.67318800  1.0
  H  H143  1  0.16418200  0.85172400  0.81090600  1.0
  H  H144  1  0.16418200  0.67318700  0.85172300  1.0
  H  H145  1  0.17074410  0.94051861  0.29666825  1.0
  H  H146  1  0.17074434  0.29666852  0.09206509  1.0
  H  H147  1  0.17074543  0.09206742  0.94051575  1.0
  H  H148  1  0.17381198  0.01543871  0.71700650  1.0
  H  H149  1  0.17957667  0.79337666  0.88758471  1.0
  H  H150  1  0.17957805  0.63946072  0.79337465  1.0
  H  H151  1  0.18775342  0.60156866  0.98469970  1.0
  H  H152  1  0.18776395  0.72597614  0.60154867  1.0
  H  H153  1  0.18805474  0.95956253  0.76715282  1.0
  H  H154  1  0.18909300  0.83581800  0.32681300  1.0
  H  H155  1  0.18909400  0.14827600  0.32681300  1.0
  H  H156  1  0.18909400  0.14827600  0.83581800  1.0
  H  H157  1  0.18909400  0.32681200  0.14827500  1.0
  H  H158  1  0.18909400  0.32681200  0.83581800  1.0
  H  H159  1  0.18909400  0.83581800  0.14827500  1.0
  H  H160  1  0.19046000  0.31523200  0.76337000  1.0
  H  H161  1  0.19046000  0.23093700  0.31523200  1.0
  H  H162  1  0.19046000  0.76336900  0.31523200  1.0
  H  H163  1  0.19046000  0.76337000  0.23093800  1.0
  H  H164  1  0.19046000  0.31523200  0.23093800  1.0
  H  H165  1  0.19046100  0.23093700  0.76337000  1.0
  H  H166  1  0.19769790  0.78166598  0.93790815  1.0
  H  H167  1  0.19770472  0.58270827  0.78166363  1.0
  H  H168  1  0.19770964  0.93791313  0.58270731  1.0
  H  H169  1  0.21310800  0.09164340  0.14469300  1.0
  H  H170  1  0.21310800  0.14469300  0.09164360  1.0
  H  H171  1  0.21310900  0.05055440  0.14469300  1.0
  H  H172  1  0.21310900  0.09164330  0.05055490  1.0
  H  H173  1  0.21310900  0.05055510  0.09164360  1.0
  H  H174  1  0.21310900  0.14469300  0.05055490  1.0
  H  H175  1  0.21613200  0.88887800  0.28452200  1.0
  H  H176  1  0.21613200  0.28452300  0.88887700  1.0
  H  H177  1  0.21613200  0.11046800  0.28452200  1.0
  H  H178  1  0.21613300  0.11046600  0.88887700  1.0
  H  H179  1  0.21613300  0.88887600  0.11046700  1.0
  H  H180  1  0.21613300  0.28452300  0.11046700  1.0
  H  H181  1  0.21639100  0.70541100  0.53362600  1.0
  H  H182  1  0.21639100  0.04457010  0.53362600  1.0
  H  H183  1  0.21639100  0.70541100  0.04457150  1.0
  H  H184  1  0.21639100  0.04457160  0.70541100  1.0
  H  H185  1  0.21639100  0.53362500  0.04457150  1.0
  H  H186  1  0.21639200  0.53362600  0.70541100  1.0
  H  H187  1  0.22310200  0.10240200  0.61311400  1.0
  H  H188  1  0.22310200  0.61311500  0.56138000  1.0
  H  H189  1  0.22310300  0.56138100  0.10240200  1.0
  H  H190  1  0.22310300  0.61311300  0.10240200  1.0
  H  H191  1  0.22310300  0.56138000  0.61311400  1.0
  H  H192  1  0.22310400  0.10240200  0.56138000  1.0
  H  H193  1  0.22916891  0.80454443  0.37296984  1.0
  H  H194  1  0.22916977  0.09331707  0.80454217  1.0
  H  H195  1  0.22917148  0.37296751  0.09331617  1.0
  H  H196  1  0.23093700  0.31523200  0.76337000  1.0
  H  H197  1  0.23093800  0.19046000  0.76337000  1.0
  H  H198  1  0.23093800  0.31523200  0.19045900  1.0
  H  H199  1  0.23093800  0.19046000  0.31523200  1.0
  H  H200  1  0.23093800  0.76336900  0.31523200  1.0
  H  H201  1  0.23093800  0.76337000  0.19045900  1.0
  H  H202  1  0.23662800  0.68476900  0.76906300  1.0
  H  H203  1  0.23662900  0.68476800  0.80953900  1.0
  H  H204  1  0.23662900  0.80953900  0.76906300  1.0
  H  H205  1  0.23662900  0.80953900  0.68476900  1.0
  H  H206  1  0.23662900  0.76906200  0.68476900  1.0
  H  H207  1  0.23662900  0.76906200  0.80953900  1.0
  H  H208  1  0.24215100  0.73440000  0.56350000  1.0
  H  H209  1  0.24215100  0.95994700  0.56350000  1.0
  H  H210  1  0.24215200  0.56349900  0.95994700  1.0
  H  H211  1  0.24215200  0.95994800  0.73440000  1.0
  H  H212  1  0.24215200  0.73440000  0.95994700  1.0
  H  H213  1  0.24215200  0.56349900  0.73440000  1.0
  H  H214  1  0.24636767  0.37674385  0.00482650  1.0
  H  H215  1  0.24636786  0.00482489  0.87206538  1.0
  H  H216  1  0.24636789  0.87206532  0.37674083  1.0
  H  H217  1  0.25815000  0.12427000  0.18910300  1.0
  H  H218  1  0.25815000  0.92847500  0.18910300  1.0
  H  H219  1  0.25815000  0.18910400  0.12427000  1.0
  H  H220  1  0.25815100  0.12427200  0.92847500  1.0
  H  H221  1  0.25815100  0.18910300  0.92847500  1.0
  H  H222  1  0.25815100  0.92847500  0.12427000  1.0
  H  H223  1  0.26217200  0.62636900  0.54382700  1.0
  H  H224  1  0.26217300  0.06763020  0.54382700  1.0
  H  H225  1  0.26217300  0.62636900  0.06763000  1.0
  H  H226  1  0.26217300  0.06762960  0.62636900  1.0
  H  H227  1  0.26217300  0.54382700  0.62636900  1.0
  H  H228  1  0.26217400  0.54382700  0.06763000  1.0
  H  H229  1  0.26559900  0.04005250  0.75784800  1.0
  H  H230  1  0.26560000  0.04005160  0.43650000  1.0
  H  H231  1  0.26560000  0.43649900  0.75784800  1.0
  H  H232  1  0.26560000  0.75784700  0.43650000  1.0
  H  H233  1  0.26560000  0.43650000  0.04005180  1.0
  H  H234  1  0.26560000  0.75784700  0.04005180  1.0
  H  H235  1  0.26857763  0.76528873  0.51103571  1.0
  H  H236  1  0.26857808  0.95510066  0.76528573  1.0
  H  H237  1  0.26857841  0.51103600  0.95509884  1.0
  H  H238  1  0.28193654  0.99647799  0.46788359  1.0
  H  H239  1  0.28287500  0.63195100  0.68552900  1.0
  H  H240  1  0.28287500  0.68552800  0.63195100  1.0
  H  H241  1  0.28287600  0.63195100  0.89964300  1.0
  H  H242  1  0.28287600  0.89964200  0.68552900  1.0
  H  H243  1  0.28287600  0.89964300  0.63195100  1.0
  H  H244  1  0.28287600  0.68552800  0.89964300  1.0
  H  H245  1  0.28421841  0.39141447  0.80894996  1.0
  H  H246  1  0.28421943  0.80894835  0.01541730  1.0
  H  H247  1  0.28422219  0.01541960  0.39141179  1.0
  H  H248  1  0.28452300  0.11046600  0.88887700  1.0
  H  H249  1  0.28452300  0.88887600  0.11046700  1.0
  H  H250  1  0.28452300  0.21613200  0.88887700  1.0
  H  H251  1  0.28452300  0.21613200  0.11046700  1.0
  H  H252  1  0.28452300  0.11046700  0.21613200  1.0
  H  H253  1  0.28452300  0.88887700  0.21613200  1.0
  H  H254  1  0.28484709  0.81449791  0.04653162  1.0
  H  H255  1  0.28485586  0.35411561  0.81449209  1.0
  H  H256  1  0.28487676  0.04657332  0.35407735  1.0
  H  H257  1  0.28647589  0.25105262  0.73799701  1.0
  H  H258  1  0.28648261  0.22447058  0.25105422  1.0
  H  H259  1  0.28904104  0.45491476  0.75536787  1.0
  H  H260  1  0.28904487  0.75536585  0.00067670  1.0
  H  H261  1  0.29667562  0.05046477  0.52902438  1.0
  H  H262  1  0.29667800  0.52902037  0.62383180  1.0
  H  H263  1  0.30238100  0.85888800  0.36936900  1.0
  H  H264  1  0.30238100  0.96936100  0.36936900  1.0
  H  H265  1  0.30238100  0.36936900  0.96936100  1.0
  H  H266  1  0.30238200  0.85888800  0.96936100  1.0
  H  H267  1  0.30238200  0.36936900  0.85888800  1.0
  H  H268  1  0.30238200  0.96936000  0.85888800  1.0
  H  H269  1  0.30606700  0.44481100  0.82499900  1.0
  H  H270  1  0.30606700  0.82499700  0.92412300  1.0
  H  H271  1  0.30606700  0.92412100  0.82499900  1.0
  H  H272  1  0.30606800  0.82499800  0.44481100  1.0
  H  H273  1  0.30606800  0.44481100  0.92412300  1.0
  H  H274  1  0.30606800  0.92412200  0.44481100  1.0
  H  H275  1  0.31069300  0.68610800  0.58678900  1.0
  H  H276  1  0.31069300  0.58678800  0.91640800  1.0
  H  H277  1  0.31069300  0.58678800  0.68611000  1.0
  H  H278  1  0.31069300  0.91640700  0.58678900  1.0
  H  H279  1  0.31069400  0.91640700  0.68611000  1.0
  H  H280  1  0.31069400  0.68610800  0.91640800  1.0
  H  H281  1  0.31388900  0.08359230  0.68930600  1.0
  H  H282  1  0.31389000  0.68930500  0.08359230  1.0
  H  H283  1  0.31389100  0.41321100  0.08359230  1.0
  H  H284  1  0.31389100  0.08359110  0.41321200  1.0
  H  H285  1  0.31389100  0.41321200  0.68930600  1.0
  H  H286  1  0.31389100  0.68930500  0.41321200  1.0
  H  H287  1  0.31447000  0.36804800  0.71712400  1.0
  H  H288  1  0.31447000  0.10035700  0.36804800  1.0
  H  H289  1  0.31447000  0.71712500  0.36804800  1.0
  H  H290  1  0.31447000  0.36804800  0.10035600  1.0
  H  H291  1  0.31447100  0.71712500  0.10035600  1.0
  H  H292  1  0.31447100  0.10035600  0.71712400  1.0
  H  H293  1  0.31523100  0.19046000  0.76337000  1.0
  H  H294  1  0.31523100  0.23093900  0.19045900  1.0
  H  H295  1  0.31523200  0.76337000  0.19045900  1.0
  H  H296  1  0.32681200  0.83581800  0.18909300  1.0
  H  H297  1  0.32681200  0.14827600  0.83581800  1.0
  H  H298  1  0.32681200  0.18909500  0.83581800  1.0
  H  H299  1  0.32681200  0.83581800  0.14827500  1.0
  H  H300  1  0.32681300  0.14827500  0.18909300  1.0
  H  H301  1  0.32681300  0.18909300  0.14827500  1.0
  H  H302  1  0.33061100  0.03902860  0.58549300  1.0
  H  H303  1  0.33061100  0.58549400  0.54486600  1.0
  H  H304  1  0.33061100  0.58549300  0.03902860  1.0
  H  H305  1  0.33856000  0.58210600  0.95780700  1.0
  H  H306  1  0.33856000  0.95780700  0.58210800  1.0
  H  H307  1  0.33856000  0.58210800  0.62152400  1.0
  H  H308  1  0.33856000  0.95780700  0.62152400  1.0
  H  H309  1  0.33856000  0.62152300  0.58210800  1.0
  H  H310  1  0.33856000  0.62152500  0.95780700  1.0
  H  H311  1  0.35060900  0.01850850  0.84592500  1.0
  H  H312  1  0.35060900  0.84592500  0.01850760  1.0
  H  H313  1  0.35060900  0.84592600  0.28495600  1.0
  H  H314  1  0.35061000  0.28495600  0.84592500  1.0
  H  H315  1  0.35061000  0.01850760  0.28495600  1.0
  H  H316  1  0.35061000  0.28495600  0.01850760  1.0
  H  H317  1  0.35167886  0.72336373  0.22577122  1.0
  H  H318  1  0.35928178  0.69651394  0.36137465  1.0
  H  H319  1  0.35928283  0.36137901  0.08281705  1.0
  H  H320  1  0.35929523  0.08280908  0.69651517  1.0
  H  H321  1  0.35970760  0.05973741  0.38420716  1.0
  H  H322  1  0.35970769  0.38420509  0.69634902  1.0
  H  H323  1  0.35970845  0.69635235  0.05973344  1.0
  H  H324  1  0.36022712  0.50009412  0.04477213  1.0
  H  H325  1  0.36936800  0.30238200  0.96936100  1.0
  H  H326  1  0.36936800  0.30238200  0.85888800  1.0
  H  H327  1  0.36936800  0.96936100  0.30238000  1.0
  H  H328  1  0.36936900  0.85888800  0.96936100  1.0
  H  H329  1  0.36936900  0.96936000  0.85888800  1.0
  H  H330  1  0.36936900  0.85888800  0.30238000  1.0
  H  H331  1  0.37107715  0.67700275  0.13764177  1.0
  H  H332  1  0.37108910  0.13763987  0.31427389  1.0
  H  H333  1  0.37177714  0.31437191  0.67652687  1.0
  H  H334  1  0.37363000  0.73782800  0.45617100  1.0
  H  H335  1  0.37363100  0.45617100  0.73782800  1.0
  H  H336  1  0.37363100  0.73782700  0.93236900  1.0
  H  H337  1  0.37363100  0.93236800  0.73782800  1.0
  H  H338  1  0.37363100  0.45617200  0.93236900  1.0
  H  H339  1  0.37363100  0.93236900  0.45617100  1.0
  H  H340  1  0.37952295  0.63085026  0.40402619  1.0
  H  H341  1  0.37952431  0.40402234  0.08559979  1.0
  H  H342  1  0.38125186  0.08588830  0.63282665  1.0
  H  H343  1  0.38688500  0.43862000  0.89759700  1.0
  H  H344  1  0.38688600  0.89759800  0.43861900  1.0
  H  H345  1  0.38688600  0.43861900  0.77689600  1.0
  H  H346  1  0.38688600  0.89759900  0.77689600  1.0
  H  H347  1  0.38688600  0.77689600  0.43861900  1.0
  H  H348  1  0.38688700  0.77689600  0.89759700  1.0
  H  H349  1  0.39146400  0.78421100  0.26341400  1.0
  H  H350  1  0.39146500  0.26341300  0.78421000  1.0
  H  H351  1  0.39146500  0.06091010  0.26341400  1.0
  H  H352  1  0.39146500  0.26341500  0.06090990  1.0
  H  H353  1  0.39146600  0.06091000  0.78421000  1.0
  H  H354  1  0.39146600  0.78421000  0.06090990  1.0
  H  H355  1  0.41321000  0.08359230  0.68930600  1.0
  H  H356  1  0.41321100  0.31389000  0.68930600  1.0
  H  H357  1  0.41321100  0.31389000  0.08359230  1.0
  H  H358  1  0.41321100  0.68930500  0.31389100  1.0
  H  H359  1  0.41321100  0.08359130  0.31389100  1.0
  H  H360  1  0.41321100  0.68930500  0.08359230  1.0
  H  H361  1  0.41408633  0.74852428  0.91408852  1.0
  H  H362  1  0.41408729  0.91408406  0.42330023  1.0
  H  H363  1  0.41409407  0.42330243  0.74852419  1.0
  H  H364  1  0.41450500  0.96097100  0.66938900  1.0
  H  H365  1  0.41450500  0.45513300  0.66938900  1.0
  H  H366  1  0.41450600  0.66938800  0.45513300  1.0
  H  H367  1  0.41450600  0.45513300  0.96097000  1.0
  H  H368  1  0.41450600  0.66938900  0.96097000  1.0
  H  H369  1  0.41450600  0.96097100  0.45513300  1.0
  H  H370  1  0.41789300  0.04219110  0.66143900  1.0
  H  H371  1  0.41789300  0.37847600  0.04219180  1.0
  H  H372  1  0.41789300  0.66143900  0.04219180  1.0
  H  H373  1  0.41789300  0.04219230  0.37847500  1.0
  H  H374  1  0.41789300  0.37847500  0.66143900  1.0
  H  H375  1  0.41789300  0.66143900  0.37847500  1.0
  H  H376  1  0.43650000  0.75784900  0.26559900  1.0
  H  H377  1  0.43650000  0.04005250  0.75784800  1.0
  H  H378  1  0.43650000  0.26560000  0.75784800  1.0
  H  H379  1  0.43650100  0.04005170  0.26559900  1.0
  H  H380  1  0.43650100  0.75784700  0.04005180  1.0
  H  H381  1  0.43650100  0.26559900  0.04005180  1.0
  H  H382  1  0.44481100  0.92412300  0.30606800  1.0
  H  H383  1  0.44481100  0.82499700  0.30606800  1.0
  H  H384  1  0.44481100  0.30606700  0.82499900  1.0
  H  H385  1  0.44481200  0.30606600  0.92412300  1.0
  H  H386  1  0.44481200  0.82499700  0.92412300  1.0
  H  H387  1  0.44481200  0.92412100  0.82499900  1.0
  H  H388  1  0.45513300  0.66938800  0.41450600  1.0
  H  H389  1  0.45513300  0.41450500  0.66938900  1.0
  H  H390  1  0.45513400  0.66938900  0.96097000  1.0
  H  H391  1  0.45513400  0.96097100  0.66938900  1.0
  H  H392  1  0.45513400  0.96097100  0.41450600  1.0
  H  H393  1  0.45513500  0.41450600  0.96097000  1.0
  H  H394  1  0.45617100  0.37362900  0.73782800  1.0
  H  H395  1  0.45617100  0.37363100  0.93236900  1.0
  H  H396  1  0.45617100  0.93237000  0.37363000  1.0
  H  H397  1  0.45617200  0.93236800  0.73782800  1.0
  H  H398  1  0.45617200  0.73782700  0.37363000  1.0
  H  H399  1  0.45617300  0.73782700  0.93236900  1.0
  H  H400  1  0.46637300  0.78360800  0.29458800  1.0
  H  H401  1  0.46637300  0.29458900  0.78360800  1.0
  H  H402  1  0.46637400  0.29458900  0.95542900  1.0
  H  H403  1  0.46637400  0.95542900  0.29458800  1.0
  H  H404  1  0.46637400  0.78360700  0.95542900  1.0
  H  H405  1  0.46637400  0.95542800  0.78360800  1.0
  H  H406  1  0.47193876  0.40749964  0.86792772  1.0
  H  H407  1  0.47194325  0.86792887  0.75262759  1.0
  H  H408  1  0.47194599  0.75263025  0.40749561  1.0
  H  H409  1  0.51228822  0.74418578  0.18618891  1.0
  H  H410  1  0.51228902  0.18618705  0.05733605  1.0
  H  H411  1  0.51229084  0.05733381  0.74418711  1.0
  H  H412  1  0.52524483  0.35402618  0.06945700  1.0
  H  H413  1  0.52524727  0.55126650  0.35403007  1.0
  H  H414  1  0.52524812  0.06945883  0.55126977  1.0
  H  H415  1  0.54382700  0.62636900  0.26217300  1.0
  H  H416  1  0.54382700  0.06763030  0.26217300  1.0
  H  H417  1  0.54382700  0.26217200  0.06763000  1.0
  H  H418  1  0.54382800  0.06762960  0.62636900  1.0
  H  H419  1  0.54382800  0.26217200  0.62636900  1.0
  H  H420  1  0.54382800  0.62636900  0.06763000  1.0
  H  H421  1  0.55376371  0.78028303  0.95085608  1.0
  H  H422  1  0.55383233  0.21506932  0.78030355  1.0
  H  H423  1  0.55383478  0.95079252  0.21506822  1.0
  H  H424  1  0.55417004  0.07515503  0.29048140  1.0
  H  H425  1  0.55417072  0.58019528  0.07515378  1.0
  H  H426  1  0.55417089  0.29047981  0.58019425  1.0
  H  H427  1  0.55518700  0.07587770  0.69393300  1.0
  H  H428  1  0.55518700  0.69393200  0.07587820  1.0
  H  H429  1  0.55518800  0.17500100  0.07587820  1.0
  H  H430  1  0.55518800  0.07587720  0.17500200  1.0
  H  H431  1  0.55518800  0.17500100  0.69393300  1.0
  H  H432  1  0.55518800  0.69393100  0.17500200  1.0
  H  H433  1  0.56137900  0.10240200  0.22310300  1.0
  H  H434  1  0.56138000  0.22310300  0.10240200  1.0
  H  H435  1  0.56138000  0.22310400  0.61311400  1.0
  H  H436  1  0.56138100  0.10240200  0.61311400  1.0
  H  H437  1  0.56138100  0.61311400  0.22310300  1.0
  H  H438  1  0.56138100  0.61311300  0.10240200  1.0
  H  H439  1  0.56841037  0.19610910  0.72372507  1.0
  H  H440  1  0.56841090  0.01175118  0.19611247  1.0
  H  H441  1  0.56841755  0.72371929  0.01175671  1.0
  H  H442  1  0.57154911  0.20393470  0.99709194  1.0
  H  H443  1  0.57253634  0.72491281  0.20465237  1.0
  H  H444  1  0.57253887  0.99789335  0.72491701  1.0
  H  H445  1  0.58210600  0.95780800  0.33855900  1.0
  H  H446  1  0.58210600  0.33856000  0.62152400  1.0
  H  H447  1  0.58210600  0.33856000  0.95780700  1.0
  H  H448  1  0.58210700  0.62152400  0.33855900  1.0
  H  H449  1  0.58210700  0.62152500  0.95780700  1.0
  H  H450  1  0.58210800  0.95780700  0.62152400  1.0
  H  H451  1  0.58549300  0.33061200  0.03902860  1.0
  H  H452  1  0.58549300  0.03902910  0.33061100  1.0
  H  H453  1  0.58549400  0.03902830  0.54486600  1.0
  H  H454  1  0.58549400  0.33061100  0.54486600  1.0
  H  H455  1  0.58549400  0.54486600  0.03902860  1.0
  H  H456  1  0.58549400  0.54486600  0.33061100  1.0
  H  H457  1  0.58678800  0.31069400  0.91640800  1.0
  H  H458  1  0.58678800  0.31069400  0.68611000  1.0
  H  H459  1  0.58678800  0.68610900  0.31069500  1.0
  H  H460  1  0.58678800  0.91640700  0.68611000  1.0
  H  H461  1  0.58678800  0.91640800  0.31069500  1.0
  H  H462  1  0.58678800  0.68610800  0.91640800  1.0
  H  H463  1  0.58790805  0.10292738  0.20319029  1.0
  H  H464  1  0.58790981  0.60597390  0.10292834  1.0
  H  H465  1  0.58791080  0.20318868  0.60597503  1.0
  H  H466  1  0.58975644  0.10178846  0.60717424  1.0
  H  H467  1  0.59504646  0.05760699  0.67992244  1.0
  H  H468  1  0.59504656  0.67992203  0.16742418  1.0
  H  H469  1  0.59622510  0.15216474  0.06568458  1.0
  H  H470  1  0.60370983  0.54811737  0.19908692  1.0
  H  H471  1  0.60371069  0.19908217  0.14908580  1.0
  H  H472  1  0.60853300  0.21579000  0.73658700  1.0
  H  H473  1  0.60853400  0.73658600  0.21579000  1.0
  H  H474  1  0.60853500  0.73658600  0.93908900  1.0
  H  H475  1  0.60853500  0.93908800  0.73658700  1.0
  H  H476  1  0.60853500  0.21578900  0.93908900  1.0
  H  H477  1  0.60853500  0.93908900  0.21579000  1.0
  H  H478  1  0.62152300  0.33856100  0.58210800  1.0
  H  H479  1  0.62152300  0.95780700  0.58210800  1.0
  H  H480  1  0.62152400  0.58210700  0.33855900  1.0
  H  H481  1  0.62152400  0.95780800  0.33855900  1.0
  H  H482  1  0.62152400  0.58210600  0.95780700  1.0
  H  H483  1  0.62152400  0.33856000  0.95780700  1.0
  H  H484  1  0.62404170  0.70456574  0.06858705  1.0
  H  H485  1  0.62404173  0.06858696  0.10280588  1.0
  H  H486  1  0.62404633  0.10279985  0.70456643  1.0
  H  H487  1  0.62636800  0.26217200  0.06763000  1.0
  H  H488  1  0.62636800  0.26217300  0.54382700  1.0
  H  H489  1  0.62636800  0.06763030  0.26217300  1.0
  H  H490  1  0.62636800  0.54382700  0.26217300  1.0
  H  H491  1  0.62636900  0.06763020  0.54382700  1.0
  H  H492  1  0.62636900  0.54382700  0.06763000  1.0
  H  H493  1  0.63084606  0.37952860  0.08559867  1.0
  H  H494  1  0.63084818  0.08559917  0.40402403  1.0
  H  H495  1  0.63195000  0.28287600  0.89964300  1.0
  H  H496  1  0.63195100  0.28287600  0.68552900  1.0
  H  H497  1  0.63195100  0.89964400  0.28287500  1.0
  H  H498  1  0.63195200  0.68552800  0.89964300  1.0
  H  H499  1  0.63195200  0.68552900  0.28287500  1.0
  H  H500  1  0.63195200  0.89964200  0.68552900  1.0
  H  H501  1  0.63945934  0.79337684  0.17957857  1.0
  H  H502  1  0.63945995  0.17957554  0.88758500  1.0
  H  H503  1  0.64939000  0.15407200  0.71504400  1.0
  H  H504  1  0.64939000  0.15407400  0.98149100  1.0
  H  H505  1  0.64939000  0.71504400  0.15407400  1.0
  H  H506  1  0.64939000  0.98149100  0.15407400  1.0
  H  H507  1  0.64939100  0.98149100  0.71504400  1.0
  H  H508  1  0.64939100  0.71504300  0.98149100  1.0
  H  H509  1  0.65451962  0.95117771  0.32942162  1.0
  H  H510  1  0.65452140  0.56487732  0.95118122  1.0
  H  H511  1  0.65452365  0.32941695  0.56487470  1.0
  H  H512  1  0.66047415  0.30785886  0.40316978  1.0
  H  H513  1  0.66047905  0.40315565  0.12849627  1.0
  H  H514  1  0.66061900  0.12858558  0.30797096  1.0
  H  H515  1  0.66143900  0.41789300  0.04219180  1.0
  H  H516  1  0.66143900  0.04219230  0.37847500  1.0
  H  H517  1  0.66143900  0.41789300  0.37847500  1.0
  H  H518  1  0.66938800  0.45513300  0.96097000  1.0
  H  H519  1  0.66938800  0.41450700  0.45513300  1.0
  H  H520  1  0.66938800  0.45513400  0.41450600  1.0
  H  H521  1  0.66938800  0.96097100  0.45513300  1.0
  H  H522  1  0.66938800  0.96097100  0.41450600  1.0
  H  H523  1  0.66938900  0.41450600  0.96097000  1.0
  H  H524  1  0.67318700  0.16418200  0.81090600  1.0
  H  H525  1  0.67318700  0.85172300  0.16418100  1.0
  H  H526  1  0.67318800  0.85172400  0.81090600  1.0
  H  H527  1  0.67398200  0.07703499  0.38902851  1.0
  H  H528  1  0.67399488  0.38901387  0.35995644  1.0
  H  H529  1  0.67424012  0.35995610  0.07724083  1.0
  H  H530  1  0.68476700  0.76906200  0.80953900  1.0
  H  H531  1  0.68476800  0.80953900  0.76906300  1.0
  H  H532  1  0.68476800  0.23662900  0.76906300  1.0
  H  H533  1  0.68476800  0.80953900  0.23662900  1.0
  H  H534  1  0.68476800  0.23662900  0.80953900  1.0
  H  H535  1  0.68476800  0.76906200  0.23662900  1.0
  H  H536  1  0.68492246  0.81432180  0.08722378  1.0
  H  H537  1  0.68492691  0.08721760  0.91352770  1.0
  H  H538  1  0.68492799  0.91352731  0.81432613  1.0
  H  H539  1  0.68552800  0.28287600  0.89964300  1.0
  H  H540  1  0.68552800  0.89964400  0.28287500  1.0
  H  H541  1  0.68552900  0.63195100  0.89964300  1.0
  H  H542  1  0.68552900  0.89964300  0.63195100  1.0
  H  H543  1  0.68553000  0.28287500  0.63195100  1.0
  H  H544  1  0.68553000  0.63195100  0.28287500  1.0
  H  H545  1  0.69393100  0.17500100  0.07587820  1.0
  H  H546  1  0.69393200  0.55518700  0.17500200  1.0
  H  H547  1  0.69393200  0.07587720  0.17500200  1.0
  H  H548  1  0.69393200  0.17500100  0.55518800  1.0
  H  H549  1  0.69393200  0.55518800  0.07587820  1.0
  H  H550  1  0.69393300  0.07587730  0.55518800  1.0
  H  H551  1  0.69634848  0.35970623  0.38420859  1.0
  H  H552  1  0.69761800  0.03063900  0.14111100  1.0
  H  H553  1  0.69761800  0.14111000  0.63063200  1.0
  H  H554  1  0.69761800  0.14111100  0.03063820  1.0
  H  H555  1  0.69761800  0.63063100  0.03063820  1.0
  H  H556  1  0.69761800  0.03063790  0.63063200  1.0
  H  H557  1  0.69761800  0.63063000  0.14111100  1.0
  H  H558  1  0.70001002  0.78512930  0.87933843  1.0
  H  H559  1  0.70320839  0.12687505  0.81820417  1.0
  H  H560  1  0.70320983  0.85170727  0.12688071  1.0
  H  H561  1  0.70321348  0.81820439  0.85170567  1.0
  H  H562  1  0.70541100  0.53362500  0.21639300  1.0
  H  H563  1  0.70541100  0.04457050  0.21639300  1.0
  H  H564  1  0.70541100  0.21639200  0.53362600  1.0
  H  H565  1  0.70541100  0.21639200  0.04457150  1.0
  H  H566  1  0.70541200  0.53362500  0.04457150  1.0
  H  H567  1  0.70541200  0.04457010  0.53362600  1.0
  H  H568  1  0.70628970  0.34308404  0.89980443  1.0
  H  H569  1  0.70661115  0.55073750  0.34293148  1.0
  H  H570  1  0.70661506  0.89971843  0.55073571  1.0
  H  H571  1  0.71504400  0.64939100  0.15407400  1.0
  H  H572  1  0.71504400  0.98149100  0.15407400  1.0
  H  H573  1  0.71504400  0.15407400  0.98149100  1.0
  H  H574  1  0.71504400  0.15407400  0.64939100  1.0
  H  H575  1  0.71504400  0.98149100  0.64939100  1.0
  H  H576  1  0.71504400  0.64939000  0.98149100  1.0
  H  H577  1  0.71712300  0.10035700  0.31447000  1.0
  H  H578  1  0.71712300  0.31447100  0.10035600  1.0
  H  H579  1  0.71712400  0.31447100  0.36804800  1.0
  H  H580  1  0.71712400  0.36804800  0.31447000  1.0
  H  H581  1  0.71712500  0.10035700  0.36804800  1.0
  H  H582  1  0.71712500  0.36804800  0.10035600  1.0
  H  H583  1  0.72167074  0.89784272  0.46912473  1.0
  H  H584  1  0.72167255  0.41135950  0.89784244  1.0
  H  H585  1  0.72167318  0.46913123  0.41135656  1.0
  H  H586  1  0.72996718  0.94611725  0.40742207  1.0
  H  H587  1  0.73108729  0.40503849  0.41461137  1.0
  H  H588  1  0.73108882  0.41460951  0.94926106  1.0
  H  H589  1  0.73439900  0.95994700  0.56350000  1.0
  H  H590  1  0.73439900  0.95994800  0.24215300  1.0
  H  H591  1  0.73439900  0.24215200  0.56350000  1.0
  H  H592  1  0.73439900  0.56349900  0.24215300  1.0
  H  H593  1  0.73440000  0.56349900  0.95994700  1.0
  H  H594  1  0.73440000  0.24215200  0.95994700  1.0
  H  H595  1  0.73658500  0.93908900  0.21579000  1.0
  H  H596  1  0.73658500  0.60853500  0.93908900  1.0
  H  H597  1  0.73658600  0.21578900  0.93908900  1.0
  H  H598  1  0.73658600  0.93908900  0.60853400  1.0
  H  H599  1  0.73658600  0.21579000  0.60853400  1.0
  H  H600  1  0.73658600  0.60853400  0.21579000  1.0
  H  H601  1  0.74184800  0.87572900  0.07152410  1.0
  H  H602  1  0.74184800  0.07152390  0.87572900  1.0
  H  H603  1  0.74184900  0.81089600  0.07152410  1.0
  H  H604  1  0.74184900  0.87572900  0.81089600  1.0
  H  H605  1  0.74184900  0.07152380  0.81089600  1.0
  H  H606  1  0.74184900  0.81089700  0.87572900  1.0
  H  H607  1  0.74763227  0.34881909  0.24896231  1.0
  H  H608  1  0.74763350  0.15458516  0.34882259  1.0
  H  H609  1  0.74894043  0.77553405  0.71351716  1.0
  H  H610  1  0.74894471  0.71351858  0.26200663  1.0
  H  H611  1  0.74894533  0.26200148  0.77552758  1.0
  H  H612  1  0.75703221  0.99359617  0.84972467  1.0
  H  H613  1  0.75703565  0.89964320  0.99359971  1.0
  H  H614  1  0.75784800  0.04005160  0.43650000  1.0
  H  H615  1  0.75784800  0.26559900  0.43650000  1.0
  H  H616  1  0.75784800  0.43650000  0.04005180  1.0
  H  H617  1  0.75784800  0.04005170  0.26559900  1.0
  H  H618  1  0.75784800  0.26559900  0.04005180  1.0
  H  H619  1  0.75784800  0.43650000  0.26559900  1.0
  H  H620  1  0.76226411  0.17986749  0.27424454  1.0
  H  H621  1  0.76337000  0.23093700  0.31523200  1.0
  H  H622  1  0.76337000  0.23093900  0.19045900  1.0
  H  H623  1  0.76337000  0.31523200  0.19045900  1.0
  H  H624  1  0.77422661  0.64832051  0.80081451  1.0
  H  H625  1  0.77422911  0.27663286  0.64831510  1.0
  H  H626  1  0.77423247  0.80081845  0.27663472  1.0
  H  H627  1  0.77689600  0.38688600  0.43861900  1.0
  H  H628  1  0.77689700  0.38688600  0.89759700  1.0
  H  H629  1  0.77689700  0.89759800  0.43861900  1.0
  H  H630  1  0.77689700  0.43861900  0.38688500  1.0
  H  H631  1  0.77689700  0.89759700  0.38688500  1.0
  H  H632  1  0.77689700  0.43862000  0.89759700  1.0
  H  H633  1  0.78360700  0.95542900  0.29458800  1.0
  H  H634  1  0.78360700  0.29458900  0.46637400  1.0
  H  H635  1  0.78360700  0.29458900  0.95542900  1.0
  H  H636  1  0.78360700  0.46637400  0.95542900  1.0
  H  H637  1  0.78360800  0.95542800  0.46637400  1.0
  H  H638  1  0.78360800  0.46637300  0.29458800  1.0
  H  H639  1  0.78386600  0.88953300  0.71547700  1.0
  H  H640  1  0.78386600  0.11112300  0.71547700  1.0
  H  H641  1  0.78386700  0.71547700  0.88953200  1.0
  H  H642  1  0.78386700  0.71547700  0.11112200  1.0
  H  H643  1  0.78386800  0.11112300  0.88953200  1.0
  H  H644  1  0.78386800  0.88953300  0.11112200  1.0
  H  H645  1  0.78420900  0.39146500  0.26341400  1.0
  H  H646  1  0.78420900  0.26341500  0.06090990  1.0
  H  H647  1  0.78421000  0.06091010  0.26341400  1.0
  H  H648  1  0.78421000  0.06091040  0.39146500  1.0
  H  H649  1  0.78421000  0.26341300  0.39146500  1.0
  H  H650  1  0.78421100  0.39146500  0.06090990  1.0
  H  H651  1  0.78689200  0.85530500  0.90835700  1.0
  H  H652  1  0.78689200  0.94944300  0.90835700  1.0
  H  H653  1  0.78689300  0.90835600  0.85530600  1.0
  H  H654  1  0.80371781  0.87765547  0.95629247  1.0
  H  H655  1  0.80894576  0.01541842  0.28422345  1.0
  H  H656  1  0.80894621  0.28422176  0.39141214  1.0
  H  H657  1  0.80953800  0.68476900  0.76906300  1.0
  H  H658  1  0.80953800  0.76906200  0.68476900  1.0
  H  H659  1  0.80953900  0.23662900  0.76906300  1.0
  H  H660  1  0.80953900  0.23662900  0.68476900  1.0
  H  H661  1  0.80953900  0.68476900  0.23662900  1.0
  H  H662  1  0.80953900  0.76906200  0.23662900  1.0
  H  H663  1  0.81089600  0.87572900  0.07152410  1.0
  H  H664  1  0.81089600  0.07152440  0.74184900  1.0
  H  H665  1  0.81089700  0.87572900  0.74184900  1.0
  H  H666  1  0.81089700  0.74184900  0.07152410  1.0
  H  H667  1  0.81089700  0.07152390  0.87572900  1.0
  H  H668  1  0.81089700  0.74184800  0.87572900  1.0
  H  H669  1  0.81090500  0.67318700  0.16418100  1.0
  H  H670  1  0.81090600  0.16418100  0.85172300  1.0
  H  H671  1  0.81090600  0.16418100  0.67318800  1.0
  H  H672  1  0.81090600  0.85172300  0.16418100  1.0
  H  H673  1  0.81090600  0.85172500  0.67318800  1.0
  H  H674  1  0.81090700  0.67318700  0.85172300  1.0
  H  H675  1  0.82499800  0.44481100  0.92412300  1.0
  H  H676  1  0.82499800  0.92412200  0.44481100  1.0
  H  H677  1  0.82499800  0.92412300  0.30606800  1.0
  H  H678  1  0.82499900  0.30606600  0.92412300  1.0
  H  H679  1  0.82499900  0.44481100  0.30606800  1.0
  H  H680  1  0.82499900  0.30606800  0.44481100  1.0
  H  H681  1  0.83581700  0.32681200  0.14827500  1.0
  H  H682  1  0.83581700  0.14827600  0.32681300  1.0
  H  H683  1  0.83581800  0.14827500  0.18909300  1.0
  H  H684  1  0.83581800  0.18909300  0.14827500  1.0
  H  H685  1  0.83581900  0.18909300  0.32681300  1.0
  H  H686  1  0.83581900  0.32681100  0.18909300  1.0
  H  H687  1  0.84564349  0.71728394  0.09946912  1.0
  H  H688  1  0.84592500  0.35060900  0.28495600  1.0
  H  H689  1  0.84592700  0.01850860  0.35060800  1.0
  H  H690  1  0.84592700  0.35060900  0.01850760  1.0
  H  H691  1  0.85172300  0.16418200  0.81090600  1.0
  H  H692  1  0.85172300  0.81090600  0.16418100  1.0
  H  H693  1  0.85172300  0.67318700  0.16418100  1.0
  H  H694  1  0.85172400  0.16418100  0.67318800  1.0
  H  H695  1  0.85172400  0.67318800  0.81090600  1.0
  H  H696  1  0.85172400  0.81090600  0.67318800  1.0
  H  H697  1  0.85530600  0.94944400  0.78689200  1.0
  H  H698  1  0.85530600  0.78689200  0.94944400  1.0
  H  H699  1  0.85530600  0.90835700  0.78689200  1.0
  H  H700  1  0.85530700  0.90835600  0.94944400  1.0
  H  H701  1  0.85530700  0.78689000  0.90835700  1.0
  H  H702  1  0.85530700  0.94944300  0.90835700  1.0
  H  H703  1  0.85888800  0.30238000  0.36936900  1.0
  H  H704  1  0.85888800  0.30238200  0.96936100  1.0
  H  H705  1  0.85888800  0.36936900  0.30238000  1.0
  H  H706  1  0.85888800  0.96936100  0.30238000  1.0
  H  H707  1  0.85888900  0.36936900  0.96936100  1.0
  H  H708  1  0.85888900  0.96936100  0.36936900  1.0
  H  H709  1  0.86212197  0.38409403  0.48930817  1.0
  H  H710  1  0.86235413  0.68572216  0.32299395  1.0
  H  H711  1  0.86236120  0.62890805  0.68572500  1.0
  H  H712  1  0.86236406  0.32301104  0.62889843  1.0
  H  H713  1  0.86792524  0.75263401  0.47194280  1.0
  H  H714  1  0.86792972  0.47193703  0.40750255  1.0
  H  H715  1  0.86793043  0.40750275  0.75262782  1.0
  H  H716  1  0.87206266  0.24636846  0.00482407  1.0
  H  H717  1  0.87312309  0.18179483  0.14829041  1.0
  H  H718  1  0.87572900  0.81089600  0.74184900  1.0
  H  H719  1  0.87572900  0.81089600  0.07152410  1.0
  H  H720  1  0.87572900  0.07152380  0.81089600  1.0
  H  H721  1  0.88887700  0.11046800  0.28452200  1.0
  H  H722  1  0.88887700  0.28452300  0.11046700  1.0
  H  H723  1  0.88887700  0.28452300  0.21613200  1.0
  H  H724  1  0.88953100  0.11112300  0.78386700  1.0
  H  H725  1  0.88953100  0.11112300  0.71547700  1.0
  H  H726  1  0.88953100  0.78386800  0.71547700  1.0
  H  H727  1  0.88953200  0.71547600  0.78386700  1.0
  H  H728  1  0.88953200  0.78386800  0.11112200  1.0
  H  H729  1  0.88953200  0.71547700  0.11112200  1.0
  H  H730  1  0.89395694  0.78645669  0.89989313  1.0
  H  H731  1  0.90792722  0.70332957  0.82925839  1.0
  H  H732  1  0.90793120  0.05947946  0.70333128  1.0
  H  H733  1  0.90835600  0.94944400  0.78689200  1.0
  H  H734  1  0.90835700  0.85530500  0.78689200  1.0
  H  H735  1  0.90835700  0.85530600  0.94944400  1.0
  H  H736  1  0.91277854  0.08647211  0.18567369  1.0
  H  H737  1  0.91278314  0.18567533  0.31507331  1.0
  H  H738  1  0.91408577  0.74852597  0.42329956  1.0
  H  H739  1  0.91408828  0.41408654  0.74852421  1.0
  H  H740  1  0.91640700  0.68610800  0.58678900  1.0
  H  H741  1  0.91640700  0.58678800  0.68611000  1.0
  H  H742  1  0.91640700  0.58678900  0.31069500  1.0
  H  H743  1  0.91640700  0.31069400  0.58678900  1.0
  H  H744  1  0.91640800  0.31069400  0.68611000  1.0
  H  H745  1  0.91640800  0.68610900  0.31069500  1.0
  H  H746  1  0.91717946  0.64071619  0.30348093  1.0
  H  H747  1  0.91718151  0.30349285  0.63862254  1.0
  H  H748  1  0.91718485  0.63862205  0.64070008  1.0
  H  H749  1  0.92412100  0.30606700  0.82499900  1.0
  H  H750  1  0.92412100  0.82499700  0.30606800  1.0
  H  H751  1  0.92412200  0.44481100  0.82499900  1.0
  H  H752  1  0.92412200  0.30606800  0.44481100  1.0
  H  H753  1  0.92412200  0.44481100  0.30606800  1.0
  H  H754  1  0.92412200  0.82499800  0.44481100  1.0
  H  H755  1  0.92847600  0.12427200  0.25815000  1.0
  H  H756  1  0.92847600  0.18910300  0.25815000  1.0
  H  H757  1  0.92847600  0.18910400  0.12427000  1.0
  H  H758  1  0.92847600  0.25815100  0.12427000  1.0
  H  H759  1  0.92847600  0.12427000  0.18910300  1.0
  H  H760  1  0.92847600  0.25815100  0.18910300  1.0
  H  H761  1  0.93126592  0.95700206  0.87196512  1.0
  H  H762  1  0.93126970  0.73976261  0.95700541  1.0
  H  H763  1  0.93236900  0.73782800  0.45617100  1.0
  H  H764  1  0.93236900  0.45617100  0.73782800  1.0
  H  H765  1  0.93236900  0.37362900  0.73782800  1.0
  H  H766  1  0.93236900  0.37363000  0.45617100  1.0
  H  H767  1  0.93236900  0.45617200  0.37363000  1.0
  H  H768  1  0.93236900  0.73782700  0.37363000  1.0
  H  H769  1  0.93908800  0.73658600  0.21579000  1.0
  H  H770  1  0.93908800  0.21579000  0.73658700  1.0
  H  H771  1  0.93908900  0.21579000  0.60853400  1.0
  H  H772  1  0.93908900  0.60853400  0.21579000  1.0
  H  H773  1  0.93908900  0.60853400  0.73658700  1.0
  H  H774  1  0.93909000  0.73658600  0.60853400  1.0
  H  H775  1  0.94944400  0.90835700  0.78689200  1.0
  H  H776  1  0.94944400  0.78689200  0.85530600  1.0
  H  H777  1  0.94944400  0.85530500  0.78689200  1.0
  H  H778  1  0.94944500  0.78689000  0.90835700  1.0
  H  H779  1  0.94944500  0.85530500  0.90835700  1.0
  H  H780  1  0.94944500  0.90835600  0.85530600  1.0
  H  H781  1  0.95542800  0.29458900  0.78360800  1.0
  H  H782  1  0.95542900  0.78360800  0.29458800  1.0
  H  H783  1  0.95542900  0.29458900  0.46637400  1.0
  H  H784  1  0.95542900  0.78360700  0.46637400  1.0
  H  H785  1  0.95542900  0.46637400  0.78360800  1.0
  H  H786  1  0.95543000  0.46637300  0.29458800  1.0
  H  H787  1  0.95780600  0.33856100  0.58210800  1.0
  H  H788  1  0.95780700  0.62152400  0.33855900  1.0
  H  H789  1  0.95780700  0.33856000  0.62152400  1.0
  H  H790  1  0.95780700  0.58210700  0.33855900  1.0
  H  H791  1  0.95780800  0.62152300  0.58210800  1.0
  H  H792  1  0.95780800  0.58210800  0.62152400  1.0
  H  H793  1  0.95994700  0.73440000  0.56350000  1.0
  H  H794  1  0.95994700  0.24215200  0.73440000  1.0
  H  H795  1  0.95994700  0.56349900  0.73440000  1.0
  H  H796  1  0.95994700  0.56349900  0.24215300  1.0
  H  H797  1  0.95994700  0.24215200  0.56350000  1.0
  H  H798  1  0.95994800  0.73439900  0.24215300  1.0
  H  H799  1  0.96097000  0.45513400  0.41450600  1.0
  H  H800  1  0.96097000  0.45513300  0.66938900  1.0
  H  H801  1  0.96097000  0.41450700  0.45513300  1.0
  H  H802  1  0.96097100  0.66938800  0.45513300  1.0
  H  H803  1  0.96097100  0.41450500  0.66938900  1.0
  H  H804  1  0.96097100  0.66938800  0.41450600  1.0
  H  H805  1  0.96936000  0.85888800  0.36936900  1.0
  H  H806  1  0.96936100  0.30238200  0.85888800  1.0
  H  H807  1  0.96936100  0.36936900  0.85888800  1.0
  H  H808  1  0.96936100  0.36936900  0.30238000  1.0
  H  H809  1  0.96936100  0.30238000  0.36936900  1.0
  H  H810  1  0.96936200  0.85888800  0.30238000  1.0
  H  H811  1  0.98149000  0.64939100  0.71504400  1.0
  H  H812  1  0.98149000  0.71504400  0.64939100  1.0
  H  H813  1  0.98149100  0.64939100  0.15407400  1.0
  H  H814  1  0.98149100  0.71504400  0.15407400  1.0
  H  H815  1  0.98149100  0.15407200  0.71504400  1.0
  H  H816  1  0.98149100  0.15407400  0.64939100  1.0
  C  C1  1  0.00347972  0.46564000  0.37392000  1.0
  C  C2  1  0.00347984  0.46563900  0.65696100  1.0
  C  C3  1  0.00348023  0.37391900  0.46564000  1.0
  C  C4  1  0.00348023  0.65695900  0.46564000  1.0
  C  C5  1  0.00348042  0.65696000  0.37392000  1.0
  C  C6  1  0.00348054  0.37391900  0.65696100  1.0
  C  C7  1  0.00351934  0.44166100  0.65869900  1.0
  C  C8  1  0.00351972  0.65870000  0.44165900  1.0
  C  C9  1  0.00352003  0.39612100  0.44165900  1.0
  C  C10  1  0.00352027  0.44166000  0.39611900  1.0
  C  C11  1  0.00352070  0.65870000  0.39611900  1.0
  C  C12  1  0.00352101  0.39611900  0.65869900  1.0
  C  C13  1  0.00743937  0.85158000  0.30198100  1.0
  C  C14  1  0.00743960  0.30198100  0.85157900  1.0
  C  C15  1  0.00744006  0.33899900  0.30198100  1.0
  C  C16  1  0.00744026  0.30198000  0.33900000  1.0
  C  C17  1  0.00744068  0.85157900  0.33900000  1.0
  C  C18  1  0.00744072  0.33900000  0.85157900  1.0
  C  C19  1  0.02038990  0.68671000  0.14359000  1.0
  C  C20  1  0.02039030  0.64931000  0.68671000  1.0
  C  C21  1  0.02039040  0.31275100  0.85410900  1.0
  C  C22  1  0.02039060  0.68671000  0.64930900  1.0
  C  C23  1  0.02039060  0.14359100  0.64930900  1.0
  C  C24  1  0.02039060  0.64930900  0.14359000  1.0
  C  C25  1  0.02039060  0.14358900  0.68671000  1.0
  C  C26  1  0.02039090  0.31275000  0.31274900  1.0
  C  C27  1  0.02039110  0.85410900  0.31274900  1.0
  C  C28  1  0.02123960  0.33508000  0.56030000  1.0
  C  C29  1  0.02123970  0.56030000  0.33508100  1.0
  C  C30  1  0.02123990  0.33508000  0.58338000  1.0
  C  C31  1  0.02124020  0.58338000  0.56030000  1.0
  C  C32  1  0.02124050  0.58337900  0.33508100  1.0
  C  C33  1  0.02124060  0.56029900  0.58338000  1.0
  C  C34  1  0.02296990  0.10930900  0.18386000  1.0
  C  C35  1  0.02297040  0.18385900  0.10930900  1.0
  C  C36  1  0.02297050  0.18386000  0.18386000  1.0
  C  C37  1  0.02553930  0.39580000  0.41840000  1.0
  C  C38  1  0.02553990  0.41839900  0.39579900  1.0
  C  C39  1  0.02554030  0.66026000  0.41840000  1.0
  C  C40  1  0.02554060  0.39579900  0.66026000  1.0
  C  C41  1  0.02554060  0.66026000  0.39579900  1.0
  C  C42  1  0.02554080  0.41839900  0.66026000  1.0
  C  C43  1  0.03424090  0.66183900  0.66183900  1.0
  C  C44  1  0.03424100  0.66183900  0.14208000  1.0
  C  C45  1  0.03424110  0.14208000  0.66183900  1.0
  C  C46  1  0.04526020  0.18319900  0.08834000  1.0
  C  C47  1  0.04526040  0.18320000  0.18319900  1.0
  C  C48  1  0.04526060  0.08833920  0.18319900  1.0
  C  C49  1  0.04569880  0.45240000  0.70924000  1.0
  C  C50  1  0.04569900  0.70924000  0.45240000  1.0
  C  C51  1  0.04569910  0.45240000  0.29266100  1.0
  C  C52  1  0.04569920  0.29266000  0.70924000  1.0
  C  C53  1  0.04569960  0.29266000  0.45240000  1.0
  C  C54  1  0.04569980  0.70923900  0.29266100  1.0
  C  C55  1  0.04576960  0.67735000  0.26081000  1.0
  C  C56  1  0.04576970  0.26081100  0.67734900  1.0
  C  C57  1  0.04576970  0.51607000  0.26081000  1.0
  C  C58  1  0.04576990  0.26081000  0.51607000  1.0
  C  C59  1  0.04577040  0.67735000  0.51607000  1.0
  C  C60  1  0.04577130  0.51606900  0.67734900  1.0
  C  C61  1  0.04789970  0.30529900  0.30530000  1.0
  C  C62  1  0.04789980  0.30530100  0.84149900  1.0
  C  C63  1  0.04790020  0.84149900  0.30530000  1.0
  C  C64  1  0.04791920  0.79374000  0.86460000  1.0
  C  C65  1  0.04792010  0.86460000  0.79373900  1.0
  C  C66  1  0.04792060  0.79373900  0.79373900  1.0
  C  C67  1  0.05444870  0.74871000  0.42213000  1.0
  C  C68  1  0.05444960  0.42212900  0.74870900  1.0
  C  C69  1  0.05444960  0.74870900  0.27471000  1.0
  C  C70  1  0.05444980  0.27471000  0.74870900  1.0
  C  C71  1  0.05445010  0.42212900  0.27471000  1.0
  C  C72  1  0.05445020  0.27470900  0.42213000  1.0
  C  C73  1  0.05812960  0.20086900  0.16045100  1.0
  C  C74  1  0.05812960  0.16045100  0.20086900  1.0
  C  C75  1  0.05813010  0.08054930  0.16045100  1.0
  C  C76  1  0.05813060  0.20086900  0.08054990  1.0
  C  C77  1  0.05813060  0.16044900  0.08054990  1.0
  C  C78  1  0.05813100  0.08054940  0.20086900  1.0
  C  C79  1  0.05865940  0.21686000  0.53806000  1.0
  C  C80  1  0.05865970  0.53805900  0.21686000  1.0
  C  C81  1  0.05866010  0.68642000  0.53806000  1.0
  C  C82  1  0.05866020  0.21686000  0.68642000  1.0
  C  C83  1  0.05866020  0.68641900  0.21686000  1.0
  C  C84  1  0.05866040  0.53806000  0.68642000  1.0
  C  C85  1  0.06200930  0.24017000  0.66791000  1.0
  C  C86  1  0.06200930  0.52991000  0.66791000  1.0
  C  C87  1  0.06200970  0.66791000  0.52991000  1.0
  C  C88  1  0.06200990  0.66790900  0.24017000  1.0
  C  C89  1  0.06201060  0.24017000  0.52991000  1.0
  C  C90  1  0.06201080  0.52990900  0.24017000  1.0
  C  C91  1  0.06207960  0.42814100  0.72142000  1.0
  C  C92  1  0.06207970  0.28836000  0.72142000  1.0
  C  C93  1  0.06207970  0.72142000  0.28835900  1.0
  C  C94  1  0.06208050  0.72141900  0.42813900  1.0
  C  C95  1  0.06208060  0.28836000  0.42813900  1.0
  C  C96  1  0.06208060  0.42814000  0.28835900  1.0
  C  C97  1  0.06290940  0.12986900  0.65361000  1.0
  C  C98  1  0.06290990  0.65360900  0.12986900  1.0
  C  C99  1  0.06290990  0.65360900  0.65361000  1.0
  C  C100  1  0.06605920  0.76362000  0.39701900  1.0
  C  C101  1  0.06605960  0.39702000  0.76361900  1.0
  C  C102  1  0.06605990  0.27330000  0.39701900  1.0
  C  C103  1  0.06606030  0.39701900  0.27329900  1.0
  C  C104  1  0.06606110  0.27329900  0.76361900  1.0
  C  C105  1  0.06606120  0.76361900  0.27329900  1.0
  C  C106  1  0.06750990  0.87679100  0.77784900  1.0
  C  C107  1  0.06751060  0.77784900  0.77784900  1.0
  C  C108  1  0.06751060  0.77784900  0.87678900  1.0
  C  C109  1  0.07264910  0.54367100  0.64041000  1.0
  C  C110  1  0.07264990  0.24327000  0.54366900  1.0
  C  C111  1  0.07264990  0.64040900  0.54366900  1.0
  C  C112  1  0.07265000  0.54367000  0.24326900  1.0
  C  C113  1  0.07265030  0.24327000  0.64041000  1.0
  C  C114  1  0.07265040  0.64041000  0.24326900  1.0
  C  C115  1  0.07456940  0.67921000  0.55243000  1.0
  C  C116  1  0.07456980  0.55242900  0.67921000  1.0
  C  C117  1  0.07457020  0.55243000  0.19379000  1.0
  C  C118  1  0.07457030  0.19379000  0.67921000  1.0
  C  C119  1  0.07457040  0.19379000  0.55243000  1.0
  C  C120  1  0.07457070  0.67920900  0.19379000  1.0
  C  C121  1  0.07881000  0.30271000  0.70963000  1.0
  C  C122  1  0.07881010  0.70963000  0.40885000  1.0
  C  C123  1  0.07881020  0.40885000  0.70963000  1.0
  C  C124  1  0.07881030  0.70963000  0.30271000  1.0
  C  C125  1  0.07881050  0.30270900  0.40885000  1.0
  C  C126  1  0.07881080  0.40884900  0.30271000  1.0
  C  C127  1  0.07911950  0.79027900  0.87983900  1.0
  C  C128  1  0.07911950  0.87983900  0.79027900  1.0
  C  C129  1  0.07911960  0.87983900  0.75076000  1.0
  C  C130  1  0.07911960  0.75075900  0.87983900  1.0
  C  C131  1  0.07912030  0.79028000  0.75076000  1.0
  C  C132  1  0.07912030  0.75076000  0.79027900  1.0
  C  C133  1  0.08054930  0.05812970  0.16045100  1.0
  C  C134  1  0.08054970  0.16044900  0.05813060  1.0
  C  C135  1  0.08054980  0.20086900  0.05813060  1.0
  C  C136  1  0.08055000  0.16045100  0.20086900  1.0
  C  C137  1  0.08055000  0.20086900  0.16045100  1.0
  C  C138  1  0.08055030  0.05812970  0.20086900  1.0
  C  C139  1  0.08499900  0.28536000  0.37886100  1.0
  C  C140  1  0.08499900  0.75078000  0.28536000  1.0
  C  C141  1  0.08499940  0.75078000  0.37886100  1.0
  C  C142  1  0.08499970  0.37885900  0.28536000  1.0
  C  C143  1  0.08499980  0.28535900  0.75077900  1.0
  C  C144  1  0.08500000  0.37886000  0.75077900  1.0
  C  C145  1  0.08833970  0.18320000  0.18319900  1.0
  C  C146  1  0.08834050  0.04526020  0.18319900  1.0
  C  C147  1  0.08834100  0.18319900  0.04525950  1.0
  C  C148  1  0.08869920  0.56308000  0.19592100  1.0
  C  C149  1  0.08869920  0.19592000  0.65230000  1.0
  C  C150  1  0.08869950  0.19592000  0.56307900  1.0
  C  C151  1  0.08869970  0.65229900  0.19592100  1.0
  C  C152  1  0.08870000  0.56308000  0.65230000  1.0
  C  C153  1  0.08870080  0.65230000  0.56307900  1.0
  C  C154  1  0.08921980  0.30220000  0.38368100  1.0
  C  C155  1  0.08922000  0.30219900  0.72490000  1.0
  C  C156  1  0.08922000  0.72489900  0.38368100  1.0
  C  C157  1  0.08922020  0.38367900  0.72490000  1.0
  C  C158  1  0.08922070  0.72489900  0.30219900  1.0
  C  C159  1  0.08922080  0.38368000  0.30219900  1.0
  C  C160  1  0.08954910  0.22101000  0.55665000  1.0
  C  C161  1  0.08954910  0.22101100  0.63278900  1.0
  C  C162  1  0.08954920  0.63279000  0.22101000  1.0
  C  C163  1  0.08954930  0.55665000  0.22101000  1.0
  C  C164  1  0.08954950  0.63278900  0.55665000  1.0
  C  C165  1  0.08954970  0.55665000  0.63278900  1.0
  C  C166  1  0.09681940  0.28350000  0.35390000  1.0
  C  C167  1  0.09681950  0.76577900  0.35390000  1.0
  C  C168  1  0.09681980  0.35389900  0.28350000  1.0
  C  C169  1  0.09682030  0.35389900  0.76577900  1.0
  C  C170  1  0.09682060  0.76577900  0.28350000  1.0
  C  C171  1  0.09682100  0.28350000  0.76577900  1.0
  C  C172  1  0.10130000  0.77469900  0.88855900  1.0
  C  C173  1  0.10130100  0.88855900  0.77469900  1.0
  C  C174  1  0.10130100  0.73544000  0.88855900  1.0
  C  C175  1  0.10130100  0.73543900  0.77469900  1.0
  C  C176  1  0.10130100  0.77470000  0.73543900  1.0
  C  C177  1  0.10130100  0.88856100  0.73543900  1.0
  C  C178  1  0.10164000  0.86508000  0.26664000  1.0
  C  C179  1  0.10164000  0.26664000  0.86508000  1.0
  C  C180  1  0.10164100  0.26663900  0.26664000  1.0
  C  C181  1  0.10412000  0.25297900  0.25297900  1.0
  C  C182  1  0.10412000  0.88992000  0.25297900  1.0
  C  C183  1  0.10412000  0.25297900  0.88992000  1.0
  C  C184  1  0.10731900  0.17208000  0.64650000  1.0
  C  C185  1  0.10731900  0.64650000  0.57409900  1.0
  C  C186  1  0.10731900  0.57410000  0.64650000  1.0
  C  C187  1  0.10732000  0.17208000  0.57409900  1.0
  C  C188  1  0.10732000  0.57409900  0.17208000  1.0
  C  C189  1  0.10732000  0.64649900  0.17208000  1.0
  C  C190  1  0.10931000  0.18385900  0.02297080  1.0
  C  C191  1  0.10931000  0.02296940  0.18386000  1.0
  C  C192  1  0.10931100  0.18386000  0.18386000  1.0
  C  C193  1  0.11007900  0.74702000  0.89588000  1.0
  C  C194  1  0.11007900  0.74702000  0.74702000  1.0
  C  C195  1  0.11008000  0.89588000  0.74702000  1.0
  C  C196  1  0.11143900  0.22529900  0.26456000  1.0
  C  C197  1  0.11143900  0.26456000  0.22530000  1.0
  C  C198  1  0.11143900  0.89870000  0.26456000  1.0
  C  C199  1  0.11143900  0.26456000  0.89870000  1.0
  C  C200  1  0.11144000  0.22529900  0.89870000  1.0
  C  C201  1  0.11144000  0.89870000  0.22530000  1.0
  C  C202  1  0.12015900  0.24924100  0.20971900  1.0
  C  C203  1  0.12016000  0.92087900  0.20971900  1.0
  C  C204  1  0.12016000  0.20971900  0.24923900  1.0
  C  C205  1  0.12016000  0.20972000  0.92087900  1.0
  C  C206  1  0.12016000  0.24924000  0.92087900  1.0
  C  C207  1  0.12016000  0.92087900  0.24923900  1.0
  C  C208  1  0.12320900  0.22215100  0.93249000  1.0
  C  C209  1  0.12321000  0.22215000  0.22215000  1.0
  C  C210  1  0.12321000  0.93248900  0.22215000  1.0
  C  C211  1  0.12986900  0.06290970  0.65361000  1.0
  C  C212  1  0.12986900  0.65361000  0.06290960  1.0
  C  C213  1  0.12987000  0.65360900  0.65361000  1.0
  C  C214  1  0.13492000  0.89836100  0.73335900  1.0
  C  C215  1  0.13492000  0.73336000  0.73335900  1.0
  C  C216  1  0.13492100  0.73335900  0.89835900  1.0
  C  C217  1  0.13540000  0.20626000  0.20626000  1.0
  C  C218  1  0.13540000  0.20626000  0.95207900  1.0
  C  C219  1  0.13540000  0.95208000  0.20626000  1.0
  C  C220  1  0.14208000  0.66184000  0.03423990  1.0
  C  C221  1  0.14208000  0.03424110  0.66183900  1.0
  C  C222  1  0.14208000  0.66183900  0.66183900  1.0
  C  C223  1  0.14358900  0.68671000  0.64930900  1.0
  C  C224  1  0.14358900  0.02039040  0.68671000  1.0
  C  C225  1  0.14358900  0.64931000  0.68671000  1.0
  C  C226  1  0.14358900  0.68671000  0.02039040  1.0
  C  C227  1  0.14359000  0.02038980  0.64930900  1.0
  C  C228  1  0.14359000  0.64930900  0.02039040  1.0
  C  C229  1  0.14588900  0.68724900  0.97961000  1.0
  C  C230  1  0.14588900  0.97960900  0.68725000  1.0
  C  C231  1  0.14589000  0.68725000  0.68725000  1.0
  C  C232  1  0.14830900  0.23696900  0.80369000  1.0
  C  C233  1  0.14830900  0.80369000  0.23697000  1.0
  C  C234  1  0.14831000  0.23697000  0.31103000  1.0
  C  C235  1  0.14831000  0.31102900  0.23697000  1.0
  C  C236  1  0.14831000  0.31102900  0.80369000  1.0
  C  C237  1  0.14831000  0.80368900  0.31103000  1.0
  C  C238  1  0.14841900  0.99256000  0.66099900  1.0
  C  C239  1  0.14841900  0.66100000  0.99255900  1.0
  C  C240  1  0.14842000  0.69801900  0.99255900  1.0
  C  C241  1  0.14842000  0.66099900  0.69802000  1.0
  C  C242  1  0.14842000  0.69801900  0.66099900  1.0
  C  C243  1  0.14842000  0.99255900  0.69802000  1.0
  C  C244  1  0.15850000  0.69469900  0.95210000  1.0
  C  C245  1  0.15850000  0.69470000  0.69469900  1.0
  C  C246  1  0.15850100  0.95209900  0.69469900  1.0
  C  C247  1  0.16045000  0.20086900  0.05813060  1.0
  C  C248  1  0.16045000  0.05813020  0.08054990  1.0
  C  C249  1  0.16045000  0.05812970  0.20086900  1.0
  C  C250  1  0.16045000  0.08054970  0.05813060  1.0
  C  C251  1  0.16045100  0.08054940  0.20086900  1.0
  C  C252  1  0.16045100  0.20086900  0.08054990  1.0
  C  C253  1  0.16732900  0.18985100  0.32003000  1.0
  C  C254  1  0.16733000  0.18985100  0.82278900  1.0
  C  C255  1  0.16733000  0.32003000  0.82278900  1.0
  C  C256  1  0.16733000  0.32003100  0.18984900  1.0
  C  C257  1  0.16733000  0.82278900  0.32003000  1.0
  C  C258  1  0.16733100  0.82278900  0.18984900  1.0
  C  C259  1  0.17078900  0.31040900  0.80431000  1.0
  C  C260  1  0.17078900  0.80430900  0.21449100  1.0
  C  C261  1  0.17078900  0.80430900  0.31041000  1.0
  C  C262  1  0.17078900  0.21449000  0.80431000  1.0
  C  C263  1  0.17078900  0.31040900  0.21449100  1.0
  C  C264  1  0.17078900  0.21449000  0.31041000  1.0
  C  C265  1  0.17208000  0.10732000  0.64650000  1.0
  C  C266  1  0.17208000  0.57410000  0.64650000  1.0
  C  C267  1  0.17208100  0.64650000  0.57409900  1.0
  C  C268  1  0.17208100  0.57410000  0.10731900  1.0
  C  C269  1  0.17208100  0.64649900  0.10731900  1.0
  C  C270  1  0.17208100  0.10732000  0.57409900  1.0
  C  C271  1  0.17720900  0.67997000  0.81014900  1.0
  C  C272  1  0.17720900  0.81015000  0.67997000  1.0
  C  C273  1  0.17720900  0.81014900  0.83267000  1.0
  C  C274  1  0.17721000  0.83266900  0.67997000  1.0
  C  C275  1  0.17721000  0.67997000  0.83267000  1.0
  C  C276  1  0.17721000  0.83266900  0.81014900  1.0
  C  C277  1  0.18320000  0.18319900  0.08834000  1.0
  C  C278  1  0.18320000  0.04525980  0.08834000  1.0
  C  C279  1  0.18320000  0.08833920  0.18319900  1.0
  C  C280  1  0.18320000  0.08834060  0.04525950  1.0
  C  C281  1  0.18320100  0.04526020  0.18319900  1.0
  C  C282  1  0.18320100  0.18319900  0.04525950  1.0
  C  C283  1  0.18385900  0.18385900  0.02297080  1.0
  C  C284  1  0.18386000  0.18385900  0.10930900  1.0
  C  C285  1  0.18386000  0.02297090  0.10930900  1.0
  C  C286  1  0.18386000  0.10930900  0.02297080  1.0
  C  C287  1  0.18386000  0.10930900  0.18386000  1.0
  C  C288  1  0.18386000  0.02296940  0.18386000  1.0
  C  C289  1  0.18984900  0.82278900  0.16733100  1.0
  C  C290  1  0.18985000  0.16733000  0.82278900  1.0
  C  C291  1  0.18985000  0.16733000  0.32003000  1.0
  C  C292  1  0.18985000  0.82278900  0.32003000  1.0
  C  C293  1  0.18985100  0.32003000  0.82278900  1.0
  C  C294  1  0.18985100  0.32002900  0.16733100  1.0
  C  C295  1  0.19184000  0.21434000  0.78062000  1.0
  C  C296  1  0.19184000  0.31319900  0.21434000  1.0
  C  C297  1  0.19184000  0.78062000  0.21434000  1.0
  C  C298  1  0.19184100  0.21434000  0.31319900  1.0
  C  C299  1  0.19184100  0.78062000  0.31319900  1.0
  C  C300  1  0.19184100  0.31319900  0.78062000  1.0
  C  C301  1  0.19378900  0.55243000  0.07457040  1.0
  C  C302  1  0.19378900  0.07456950  0.55243000  1.0
  C  C303  1  0.19379000  0.67921000  0.55243000  1.0
  C  C304  1  0.19379000  0.55242900  0.67921000  1.0
  C  C305  1  0.19379000  0.67921000  0.07457040  1.0
  C  C306  1  0.19379100  0.07456890  0.67921000  1.0
  C  C307  1  0.19568900  0.82921000  0.78551000  1.0
  C  C308  1  0.19569000  0.82920800  0.68959100  1.0
  C  C309  1  0.19569000  0.68958900  0.78551000  1.0
  C  C310  1  0.19569000  0.68958900  0.82920900  1.0
  C  C311  1  0.19569000  0.78551000  0.82920900  1.0
  C  C312  1  0.19569000  0.78550800  0.68959100  1.0
  C  C313  1  0.19591800  0.56308000  0.65230000  1.0
  C  C314  1  0.19591900  0.65230000  0.56307900  1.0
  C  C315  1  0.19592000  0.08870040  0.56307900  1.0
  C  C316  1  0.19592000  0.08870050  0.65230000  1.0
  C  C317  1  0.19592000  0.65229900  0.08870060  1.0
  C  C318  1  0.19592000  0.56308000  0.08870060  1.0
  C  C319  1  0.19630900  0.68896900  0.85169000  1.0
  C  C320  1  0.19630900  0.68897000  0.76303100  1.0
  C  C321  1  0.19631000  0.76302900  0.68896900  1.0
  C  C322  1  0.19631000  0.85168800  0.76303100  1.0
  C  C323  1  0.19631000  0.85169000  0.68896900  1.0
  C  C324  1  0.19631000  0.76302900  0.85169000  1.0
  C  C325  1  0.20086900  0.05812970  0.16045100  1.0
  C  C326  1  0.20086900  0.08054930  0.16045100  1.0
  C  C327  1  0.20087000  0.16044900  0.05813060  1.0
  C  C328  1  0.20087000  0.05813020  0.08054990  1.0
  C  C329  1  0.20087000  0.08054970  0.05813060  1.0
  C  C330  1  0.20087000  0.16044900  0.08054990  1.0
  C  C331  1  0.20625900  0.95208000  0.13540000  1.0
  C  C332  1  0.20626000  0.20626000  0.95207900  1.0
  C  C333  1  0.20626000  0.13540000  0.20626000  1.0
  C  C334  1  0.20626000  0.95208000  0.20626000  1.0
  C  C335  1  0.20626000  0.20626100  0.13540000  1.0
  C  C336  1  0.20626000  0.13540000  0.95207900  1.0
  C  C337  1  0.20972000  0.12016100  0.92087900  1.0
  C  C338  1  0.20972000  0.92088000  0.12015900  1.0
  C  C339  1  0.20972000  0.12016000  0.24923900  1.0
  C  C340  1  0.20972000  0.24924000  0.12015900  1.0
  C  C341  1  0.20972100  0.92087900  0.24923900  1.0
  C  C342  1  0.20972100  0.24924000  0.92087900  1.0
  C  C343  1  0.21433900  0.19184000  0.78062000  1.0
  C  C344  1  0.21433900  0.31320100  0.19183900  1.0
  C  C345  1  0.21433900  0.31319900  0.78062000  1.0
  C  C346  1  0.21433900  0.19184100  0.31319900  1.0
  C  C347  1  0.21433900  0.78062000  0.31319900  1.0
  C  C348  1  0.21434000  0.78062000  0.19183900  1.0
  C  C349  1  0.21448900  0.80430900  0.31041000  1.0
  C  C350  1  0.21448900  0.17079000  0.80431000  1.0
  C  C351  1  0.21448900  0.31040900  0.80431000  1.0
  C  C352  1  0.21449000  0.31041000  0.17079000  1.0
  C  C353  1  0.21449000  0.80431000  0.17079000  1.0
  C  C354  1  0.21449000  0.17079000  0.31041000  1.0
  C  C355  1  0.21685900  0.53806000  0.68642000  1.0
  C  C356  1  0.21685900  0.68642000  0.53806000  1.0
  C  C357  1  0.21686000  0.05865970  0.53806000  1.0
  C  C358  1  0.21686000  0.05866000  0.68642000  1.0
  C  C359  1  0.21686000  0.68641900  0.05866080  1.0
  C  C360  1  0.21686100  0.53805900  0.05866080  1.0
  C  C361  1  0.21937900  0.80815900  0.78566000  1.0
  C  C362  1  0.21938000  0.68680000  0.80815900  1.0
  C  C363  1  0.21938000  0.68679900  0.78566000  1.0
  C  C364  1  0.21938000  0.78566000  0.68680000  1.0
  C  C365  1  0.21938000  0.80816000  0.68680000  1.0
  C  C366  1  0.21938000  0.78565900  0.80815900  1.0
  C  C367  1  0.22100900  0.63279000  0.08955040  1.0
  C  C368  1  0.22100900  0.55665000  0.08955040  1.0
  C  C369  1  0.22101000  0.08955000  0.55665000  1.0
  C  C370  1  0.22101000  0.08955020  0.63278900  1.0
  C  C371  1  0.22101100  0.55665000  0.63278900  1.0
  C  C372  1  0.22101100  0.63278900  0.55665000  1.0
  C  C373  1  0.22214900  0.12321100  0.93249000  1.0
  C  C374  1  0.22215000  0.22215100  0.93249000  1.0
  C  C375  1  0.22215000  0.93248900  0.22215000  1.0
  C  C376  1  0.22215000  0.93248900  0.12320900  1.0
  C  C377  1  0.22215000  0.12321000  0.22215000  1.0
  C  C378  1  0.22215000  0.22215100  0.12320900  1.0
  C  C379  1  0.22529900  0.11144000  0.26456000  1.0
  C  C380  1  0.22529900  0.26456100  0.11143900  1.0
  C  C381  1  0.22530000  0.11144100  0.89870000  1.0
  C  C382  1  0.22530000  0.26456000  0.89870000  1.0
  C  C383  1  0.22530000  0.89870000  0.26456000  1.0
  C  C384  1  0.22530100  0.89869900  0.11143900  1.0
  C  C385  1  0.23422000  0.90317900  0.64609900  1.0
  C  C386  1  0.23422000  0.71650100  0.90317900  1.0
  C  C387  1  0.23422000  0.64610000  0.71650000  1.0
  C  C388  1  0.23422000  0.90317900  0.71650000  1.0
  C  C389  1  0.23422000  0.64610000  0.90317900  1.0
  C  C390  1  0.23422100  0.71649900  0.64609900  1.0
  C  C391  1  0.23637900  0.60298000  0.72669900  1.0
  C  C392  1  0.23638000  0.60298000  0.93394000  1.0
  C  C393  1  0.23638000  0.72669900  0.93394000  1.0
  C  C394  1  0.23638000  0.72669900  0.60297900  1.0
  C  C395  1  0.23638000  0.93393900  0.60297900  1.0
  C  C396  1  0.23638100  0.93393900  0.72669900  1.0
  C  C397  1  0.23696900  0.14831100  0.80369000  1.0
  C  C398  1  0.23696900  0.80368900  0.14831100  1.0
  C  C399  1  0.23697000  0.14830900  0.31103000  1.0
  C  C400  1  0.23697000  0.31102900  0.14831100  1.0
  C  C401  1  0.23697000  0.31102900  0.80369000  1.0
  C  C402  1  0.23697000  0.80368900  0.31103000  1.0
  C  C403  1  0.24016900  0.06201050  0.52991000  1.0
  C  C404  1  0.24016900  0.52991100  0.06200910  1.0
  C  C405  1  0.24017000  0.66791000  0.52991000  1.0
  C  C406  1  0.24017000  0.52991000  0.66791000  1.0
  C  C407  1  0.24017000  0.66791100  0.06200910  1.0
  C  C408  1  0.24017000  0.06200920  0.66791000  1.0
  C  C409  1  0.24326900  0.64041000  0.07265060  1.0
  C  C410  1  0.24326900  0.07264970  0.64041000  1.0
  C  C411  1  0.24327000  0.07264970  0.54366900  1.0
  C  C412  1  0.24327000  0.54366900  0.07265060  1.0
  C  C413  1  0.24327000  0.54367100  0.64041000  1.0
  C  C414  1  0.24327100  0.64040900  0.54366900  1.0
  C  C415  1  0.24922000  0.62114000  0.91499900  1.0
  C  C416  1  0.24922000  0.91499900  0.71463900  1.0
  C  C417  1  0.24922000  0.91499900  0.62114000  1.0
  C  C418  1  0.24922000  0.71463900  0.91499900  1.0
  C  C419  1  0.24922100  0.71463900  0.62114000  1.0
  C  C420  1  0.24922100  0.62114000  0.71463900  1.0
  C  C421  1  0.24923900  0.12016100  0.92087900  1.0
  C  C422  1  0.24924000  0.20972000  0.92087900  1.0
  C  C423  1  0.24924000  0.92087900  0.20971900  1.0
  C  C424  1  0.24924000  0.92088000  0.12015900  1.0
  C  C425  1  0.24924000  0.12016000  0.20971900  1.0
  C  C426  1  0.24924000  0.20972000  0.12015900  1.0
  C  C427  1  0.25128900  0.57786900  0.72529000  1.0
  C  C428  1  0.25128900  0.94555000  0.72529000  1.0
  C  C429  1  0.25128900  0.72529000  0.57787000  1.0
  C  C430  1  0.25129000  0.94554900  0.57787000  1.0
  C  C431  1  0.25129000  0.57787000  0.94555000  1.0
  C  C432  1  0.25129000  0.72528900  0.94555000  1.0
  C  C433  1  0.25298000  0.25298100  0.10411900  1.0
  C  C434  1  0.25298000  0.10411900  0.88992000  1.0
  C  C435  1  0.25298000  0.88991900  0.10411900  1.0
  C  C436  1  0.25298100  0.10411900  0.25297900  1.0
  C  C437  1  0.25298100  0.88992000  0.25297900  1.0
  C  C438  1  0.25298100  0.25297900  0.88992000  1.0
  C  C439  1  0.26080900  0.04577050  0.67734900  1.0
  C  C440  1  0.26080900  0.04576970  0.51607000  1.0
  C  C441  1  0.26080900  0.51607000  0.04577010  1.0
  C  C442  1  0.26080900  0.67735000  0.51607000  1.0
  C  C443  1  0.26080900  0.67735000  0.04577010  1.0
  C  C444  1  0.26081000  0.51606900  0.67734900  1.0
  C  C445  1  0.26455900  0.11144100  0.89870000  1.0
  C  C446  1  0.26456000  0.22529900  0.89870000  1.0
  C  C447  1  0.26456000  0.89870000  0.22530000  1.0
  C  C448  1  0.26456000  0.11144000  0.22530000  1.0
  C  C449  1  0.26456000  0.22530000  0.11143900  1.0
  C  C450  1  0.26456000  0.89869900  0.11143900  1.0
  C  C451  1  0.26663900  0.10164100  0.86508000  1.0
  C  C452  1  0.26664000  0.10164000  0.26664000  1.0
  C  C453  1  0.26664000  0.26664000  0.10164000  1.0
  C  C454  1  0.26664000  0.26664000  0.86508000  1.0
  C  C455  1  0.26664000  0.86507900  0.10164000  1.0
  C  C456  1  0.26664000  0.86508000  0.26664000  1.0
  C  C457  1  0.27330000  0.06605930  0.76361900  1.0
  C  C458  1  0.27330000  0.39702000  0.76361900  1.0
  C  C459  1  0.27330000  0.76361900  0.06605910  1.0
  C  C460  1  0.27330000  0.06605990  0.39701900  1.0
  C  C461  1  0.27330000  0.76362000  0.39701900  1.0
  C  C462  1  0.27330100  0.39701900  0.06605910  1.0
  C  C463  1  0.27471000  0.05445000  0.42213000  1.0
  C  C464  1  0.27471000  0.74871000  0.42213000  1.0
  C  C465  1  0.27471100  0.05444920  0.74870900  1.0
  C  C466  1  0.27471100  0.42212900  0.05444900  1.0
  C  C467  1  0.27471100  0.42212900  0.74870900  1.0
  C  C468  1  0.27471100  0.74870900  0.05444900  1.0
  C  C469  1  0.27509900  0.69780000  0.61632000  1.0
  C  C470  1  0.27509900  0.91077900  0.61632000  1.0
  C  C471  1  0.27509900  0.91078000  0.69780000  1.0
  C  C472  1  0.27510000  0.61632000  0.69780000  1.0
  C  C473  1  0.27510000  0.69779900  0.91078000  1.0
  C  C474  1  0.27510000  0.61631900  0.91078000  1.0
  C  C475  1  0.27857900  0.93792000  0.57186000  1.0
  C  C476  1  0.27858000  0.93791900  0.71163900  1.0
  C  C477  1  0.27858000  0.57185900  0.71163900  1.0
  C  C478  1  0.27858000  0.57186000  0.93791900  1.0
  C  C479  1  0.27858000  0.71163900  0.57186000  1.0
  C  C480  1  0.27858000  0.71164000  0.93791900  1.0
  C  C481  1  0.28349900  0.76578000  0.09682010  1.0
  C  C482  1  0.28350000  0.76577900  0.35390000  1.0
  C  C483  1  0.28350000  0.09682000  0.76577900  1.0
  C  C484  1  0.28350000  0.09682010  0.35390000  1.0
  C  C485  1  0.28350000  0.35390000  0.09682010  1.0
  C  C486  1  0.28350100  0.35389900  0.76577900  1.0
  C  C487  1  0.28535900  0.08499940  0.37886100  1.0
  C  C488  1  0.28535900  0.08500090  0.75077900  1.0
  C  C489  1  0.28535900  0.75078000  0.08499950  1.0
  C  C490  1  0.28535900  0.75078000  0.37886100  1.0
  C  C491  1  0.28536000  0.37885900  0.08499950  1.0
  C  C492  1  0.28536000  0.37886000  0.75077900  1.0
  C  C493  1  0.28835900  0.42814100  0.72142000  1.0
  C  C494  1  0.28836000  0.06207940  0.72142000  1.0
  C  C495  1  0.28836000  0.72141900  0.42813900  1.0
  C  C496  1  0.28836000  0.72142000  0.06207930  1.0
  C  C497  1  0.28836100  0.42814000  0.06207930  1.0
  C  C498  1  0.28836100  0.06207940  0.42813900  1.0
  C  C499  1  0.29036900  0.59115000  0.92118900  1.0
  C  C500  1  0.29036900  0.69728900  0.92118900  1.0
  C  C501  1  0.29036900  0.92119000  0.69728900  1.0
  C  C502  1  0.29037000  0.92118900  0.59114900  1.0
  C  C503  1  0.29037000  0.69729000  0.59114900  1.0
  C  C504  1  0.29037000  0.59115000  0.69728900  1.0
  C  C505  1  0.29075900  0.70733900  0.54760100  1.0
  C  C506  1  0.29075900  0.95429900  0.54760100  1.0
  C  C507  1  0.29075900  0.54760000  0.70734000  1.0
  C  C508  1  0.29075900  0.95430000  0.70734000  1.0
  C  C509  1  0.29075900  0.70734000  0.95429900  1.0
  C  C510  1  0.29076000  0.54760000  0.95429900  1.0
  C  C511  1  0.29266000  0.04570040  0.70924000  1.0
  C  C512  1  0.29266000  0.45240000  0.70924000  1.0
  C  C513  1  0.29266000  0.04569970  0.45240000  1.0
  C  C514  1  0.29266000  0.70924000  0.04570000  1.0
  C  C515  1  0.29266000  0.70924000  0.45240000  1.0
  C  C516  1  0.29266000  0.45239900  0.04570000  1.0
  C  C517  1  0.30197900  0.00744077  0.33900000  1.0
  C  C518  1  0.30198000  0.00743989  0.85157900  1.0
  C  C519  1  0.30198000  0.33900000  0.85157900  1.0
  C  C520  1  0.30198000  0.85157900  0.33900000  1.0
  C  C521  1  0.30198000  0.33900100  0.00743930  1.0
  C  C522  1  0.30198000  0.85157900  0.00743930  1.0
  C  C523  1  0.30219900  0.72489900  0.38368100  1.0
  C  C524  1  0.30220000  0.08921950  0.38368100  1.0
  C  C525  1  0.30220000  0.08921890  0.72490000  1.0
  C  C526  1  0.30220000  0.38367900  0.72490000  1.0
  C  C527  1  0.30220000  0.72490000  0.08921900  1.0
  C  C528  1  0.30220000  0.38368000  0.08921900  1.0
  C  C529  1  0.30270900  0.40885000  0.70963000  1.0
  C  C530  1  0.30270900  0.70963000  0.40885000  1.0
  C  C531  1  0.30271000  0.70963100  0.07880950  1.0
  C  C532  1  0.30271000  0.40884900  0.07880950  1.0
  C  C533  1  0.30271000  0.07880950  0.70963000  1.0
  C  C534  1  0.30271000  0.07881030  0.40885000  1.0
  C  C535  1  0.30529900  0.30529900  0.04790040  1.0
  C  C536  1  0.30529900  0.04790000  0.30530000  1.0
  C  C537  1  0.30530000  0.04789960  0.84149900  1.0
  C  C538  1  0.30530000  0.30530100  0.84149900  1.0
  C  C539  1  0.30530000  0.84149900  0.04790040  1.0
  C  C540  1  0.30530000  0.84149900  0.30530000  1.0
  C  C541  1  0.31040900  0.17079000  0.80431000  1.0
  C  C542  1  0.31040900  0.17079000  0.21449100  1.0
  C  C543  1  0.31040900  0.80431000  0.17079000  1.0
  C  C544  1  0.31041000  0.80430900  0.21449100  1.0
  C  C545  1  0.31041000  0.21449000  0.80431000  1.0
  C  C546  1  0.31041000  0.21448900  0.17079000  1.0
  C  C547  1  0.31102900  0.80369000  0.23697000  1.0
  C  C548  1  0.31102900  0.23696900  0.80369000  1.0
  C  C549  1  0.31103000  0.23696900  0.14831100  1.0
  C  C550  1  0.31103000  0.14831100  0.80369000  1.0
  C  C551  1  0.31103000  0.14831000  0.23697000  1.0
  C  C552  1  0.31103100  0.80368900  0.14831100  1.0
  C  C553  1  0.31274900  0.31275100  0.85410900  1.0
  C  C554  1  0.31275000  0.02039090  0.85410900  1.0
  C  C555  1  0.31275000  0.31274900  0.02039040  1.0
  C  C556  1  0.31275000  0.85410900  0.31274900  1.0
  C  C557  1  0.31275000  0.02038980  0.31274900  1.0
  C  C558  1  0.31275000  0.85410900  0.02039040  1.0
  C  C559  1  0.31319900  0.21434000  0.78062000  1.0
  C  C560  1  0.31319900  0.78062000  0.21434000  1.0
  C  C561  1  0.31320000  0.19184000  0.78062000  1.0
  C  C562  1  0.31320000  0.19184000  0.21434000  1.0
  C  C563  1  0.31320000  0.21434000  0.19183900  1.0
  C  C564  1  0.31320000  0.78062000  0.19183900  1.0
  C  C565  1  0.31328900  0.35069000  0.97961000  1.0
  C  C566  1  0.31328900  0.97960900  0.35069000  1.0
  C  C567  1  0.31329000  0.85640800  0.97961000  1.0
  C  C568  1  0.31329000  0.97960900  0.85640900  1.0
  C  C569  1  0.31329000  0.85640900  0.35069000  1.0
  C  C570  1  0.31329000  0.35069000  0.85640900  1.0
  C  C571  1  0.31358000  0.46194000  0.94134000  1.0
  C  C572  1  0.31358000  0.78314000  0.94134000  1.0
  C  C573  1  0.31358000  0.46194000  0.78314000  1.0
  C  C574  1  0.31358000  0.94133900  0.78314000  1.0
  C  C575  1  0.31358000  0.94133900  0.46194000  1.0
  C  C576  1  0.31358100  0.78313900  0.46194000  1.0
  C  C577  1  0.32002900  0.82278900  0.16733100  1.0
  C  C578  1  0.32003000  0.16733000  0.82278900  1.0
  C  C579  1  0.32003000  0.18985100  0.82278900  1.0
  C  C580  1  0.32003000  0.16733000  0.18984900  1.0
  C  C581  1  0.32003000  0.82278900  0.18984900  1.0
  C  C582  1  0.32003000  0.18984900  0.16733100  1.0
  C  C583  1  0.32078900  0.44757000  0.80621000  1.0
  C  C584  1  0.32078900  0.80621000  0.92543000  1.0
  C  C585  1  0.32079000  0.44757000  0.92543000  1.0
  C  C586  1  0.32079000  0.80620800  0.44757100  1.0
  C  C587  1  0.32079000  0.92542900  0.44757100  1.0
  C  C588  1  0.32079000  0.92542800  0.80621000  1.0
  C  C589  1  0.32264900  0.48392900  0.73919000  1.0
  C  C590  1  0.32264900  0.95422900  0.73919000  1.0
  C  C591  1  0.32265000  0.73918900  0.95422900  1.0
  C  C592  1  0.32265000  0.73918900  0.48392900  1.0
  C  C593  1  0.32265100  0.48392900  0.95422900  1.0
  C  C594  1  0.32265100  0.95422900  0.48392900  1.0
  C  C595  1  0.33208900  0.47009000  0.75983000  1.0
  C  C596  1  0.33209000  0.47009000  0.93799000  1.0
  C  C597  1  0.33209000  0.75983000  0.93799000  1.0
  C  C598  1  0.33209000  0.93799000  0.47008900  1.0
  C  C599  1  0.33209000  0.75982900  0.47008900  1.0
  C  C600  1  0.33209000  0.93798900  0.75983000  1.0
  C  C601  1  0.33507900  0.02123950  0.56030000  1.0
  C  C602  1  0.33507900  0.58338000  0.56030000  1.0
  C  C603  1  0.33507900  0.56029900  0.58338000  1.0
  C  C604  1  0.33508000  0.58338000  0.02124010  1.0
  C  C605  1  0.33508000  0.02124000  0.58338000  1.0
  C  C606  1  0.33508000  0.56029900  0.02124010  1.0
  C  C607  1  0.33815900  0.96576000  0.33816000  1.0
  C  C608  1  0.33815900  0.85792000  0.96575900  1.0
  C  C609  1  0.33815900  0.96576000  0.85791900  1.0
  C  C610  1  0.33816000  0.33816000  0.85791900  1.0
  C  C611  1  0.33816000  0.85791900  0.33816000  1.0
  C  C612  1  0.33816000  0.33816100  0.96575900  1.0
  C  C613  1  0.33899900  0.85158000  0.30198100  1.0
  C  C614  1  0.33900000  0.00743965  0.30198100  1.0
  C  C615  1  0.33900000  0.30198000  0.00743930  1.0
  C  C616  1  0.33900000  0.30198100  0.85157900  1.0
  C  C617  1  0.33900100  0.00743989  0.85157900  1.0
  C  C618  1  0.33900100  0.85157900  0.00743930  1.0
  C  C619  1  0.33974000  0.58160000  0.97445900  1.0
  C  C620  1  0.33974000  0.97446000  0.58159900  1.0
  C  C621  1  0.33974000  0.97446000  0.60419900  1.0
  C  C622  1  0.33974000  0.58160000  0.60419900  1.0
  C  C623  1  0.33974000  0.60419900  0.97445900  1.0
  C  C624  1  0.33974100  0.60420000  0.58159900  1.0
  C  C625  1  0.34129900  0.60388100  0.99647900  1.0
  C  C626  1  0.34129900  0.99647900  0.60388000  1.0
  C  C627  1  0.34129900  0.60388000  0.55834000  1.0
  C  C628  1  0.34130000  0.99647900  0.55834000  1.0
  C  C629  1  0.34130000  0.55833900  0.60388000  1.0
  C  C630  1  0.34130000  0.55833900  0.99647900  1.0
  C  C631  1  0.34303900  0.99652000  0.53435900  1.0
  C  C632  1  0.34303900  0.62608000  0.53435900  1.0
  C  C633  1  0.34304000  0.62607900  0.99652000  1.0
  C  C634  1  0.34304000  0.53435900  0.62607900  1.0
  C  C635  1  0.34304000  0.53435900  0.99652000  1.0
  C  C636  1  0.34304100  0.99651900  0.62607900  1.0
  C  C637  1  0.34638900  0.87013000  0.93708900  1.0
  C  C638  1  0.34639000  0.34639000  0.87013000  1.0
  C  C639  1  0.34639000  0.34639100  0.93708900  1.0
  C  C640  1  0.34639000  0.93708900  0.87013000  1.0
  C  C641  1  0.34639000  0.87012900  0.34639100  1.0
  C  C642  1  0.34639000  0.93708900  0.34639100  1.0
  C  C643  1  0.34769900  0.91129900  0.80408000  1.0
  C  C644  1  0.34769900  0.80407900  0.91130000  1.0
  C  C645  1  0.34770000  0.91129900  0.43691900  1.0
  C  C646  1  0.34770000  0.43691900  0.91130000  1.0
  C  C647  1  0.34770100  0.43691900  0.80408000  1.0
  C  C648  1  0.34770100  0.80407900  0.43691900  1.0
  C  C649  1  0.35068800  0.31329000  0.97961000  1.0
  C  C650  1  0.35068800  0.97961000  0.31329100  1.0
  C  C651  1  0.35068900  0.85640800  0.97961000  1.0
  C  C652  1  0.35068900  0.85640900  0.31329100  1.0
  C  C653  1  0.35069000  0.31329100  0.85640900  1.0
  C  C654  1  0.35069000  0.97960900  0.85640900  1.0
  C  C655  1  0.35349900  0.42590000  0.82792000  1.0
  C  C656  1  0.35349900  0.82792000  0.89267900  1.0
  C  C657  1  0.35349900  0.89267900  0.82792000  1.0
  C  C658  1  0.35350000  0.42590100  0.89267900  1.0
  C  C659  1  0.35350000  0.82791900  0.42590000  1.0
  C  C660  1  0.35350000  0.89267900  0.42590000  1.0
  C  C661  1  0.35389900  0.76577900  0.28350000  1.0
  C  C662  1  0.35390000  0.28350000  0.76577900  1.0
  C  C663  1  0.35390000  0.09681960  0.28350000  1.0
  C  C664  1  0.35390000  0.28350000  0.09682010  1.0
  C  C665  1  0.35390000  0.76578000  0.09682010  1.0
  C  C666  1  0.35390100  0.09682000  0.76577900  1.0
  C  C667  1  0.35958900  0.45632900  0.92735000  1.0
  C  C668  1  0.35958900  0.75673000  0.45632900  1.0
  C  C669  1  0.35958900  0.45633000  0.75672900  1.0
  C  C670  1  0.35959000  0.75673000  0.92735000  1.0
  C  C671  1  0.35959000  0.92735000  0.45632900  1.0
  C  C672  1  0.35959100  0.92734900  0.75672900  1.0
  C  C673  1  0.36720900  0.77898900  0.91045000  1.0
  C  C674  1  0.36720900  0.44335000  0.91045000  1.0
  C  C675  1  0.36721000  0.91044900  0.44334900  1.0
  C  C676  1  0.36721000  0.77899100  0.44334900  1.0
  C  C677  1  0.36721000  0.91044900  0.77898900  1.0
  C  C678  1  0.36721100  0.44334900  0.77898900  1.0
  C  C679  1  0.37391900  0.46564000  0.00348090  1.0
  C  C680  1  0.37392000  0.00347936  0.46564000  1.0
  C  C681  1  0.37392000  0.65695900  0.00348090  1.0
  C  C682  1  0.37392000  0.00347896  0.65696100  1.0
  C  C683  1  0.37392000  0.46563900  0.65696100  1.0
  C  C684  1  0.37392000  0.65695900  0.46564000  1.0
  C  C685  1  0.37886000  0.28536000  0.08499950  1.0
  C  C686  1  0.37886000  0.08500000  0.28536000  1.0
  C  C687  1  0.37886000  0.75078000  0.08499950  1.0
  C  C688  1  0.37886000  0.08500090  0.75077900  1.0
  C  C689  1  0.37886000  0.75078000  0.28536000  1.0
  C  C690  1  0.37886100  0.28535900  0.75077900  1.0
  C  C691  1  0.38367900  0.30219900  0.72490000  1.0
  C  C692  1  0.38368000  0.72489900  0.30219900  1.0
  C  C693  1  0.38368000  0.08921890  0.72490000  1.0
  C  C694  1  0.38368000  0.30220100  0.08921900  1.0
  C  C695  1  0.38368000  0.72490000  0.08921900  1.0
  C  C696  1  0.38368100  0.08921960  0.30219900  1.0
  C  C697  1  0.39579900  0.41839900  0.66026000  1.0
  C  C698  1  0.39579900  0.66026000  0.41840000  1.0
  C  C699  1  0.39579900  0.66026100  0.02553960  1.0
  C  C700  1  0.39580000  0.02553970  0.41840000  1.0
  C  C701  1  0.39580000  0.02553930  0.66026000  1.0
  C  C702  1  0.39580000  0.41840000  0.02553960  1.0
  C  C703  1  0.39611900  0.00352055  0.65869900  1.0
  C  C704  1  0.39611900  0.65869900  0.00351988  1.0
  C  C705  1  0.39612000  0.44166100  0.65869900  1.0
  C  C706  1  0.39612100  0.00352000  0.44165900  1.0
  C  C707  1  0.39612100  0.65870000  0.44165900  1.0
  C  C708  1  0.39612100  0.44166000  0.00351988  1.0
  C  C709  1  0.39702000  0.27329900  0.76361900  1.0
  C  C710  1  0.39702000  0.76361900  0.27329900  1.0
  C  C711  1  0.39702100  0.06605930  0.76361900  1.0
  C  C712  1  0.39702100  0.76361900  0.06605910  1.0
  C  C713  1  0.39702100  0.06606030  0.27329900  1.0
  C  C714  1  0.39702100  0.27330000  0.06605910  1.0
  C  C715  1  0.40884900  0.30271000  0.70963000  1.0
  C  C716  1  0.40884900  0.70963100  0.07880950  1.0
  C  C717  1  0.40884900  0.07881060  0.30271000  1.0
  C  C718  1  0.40884900  0.70963000  0.30271000  1.0
  C  C719  1  0.40885000  0.07880950  0.70963000  1.0
  C  C720  1  0.40885000  0.30271000  0.07880950  1.0
  C  C721  1  0.41661900  0.43969900  0.66492000  1.0
  C  C722  1  0.41662000  0.66491800  0.43970000  1.0
  C  C723  1  0.41662000  0.66492100  0.97875900  1.0
  C  C724  1  0.41662000  0.97875900  0.43970000  1.0
  C  C725  1  0.41662000  0.97876000  0.66492000  1.0
  C  C726  1  0.41662100  0.43970000  0.97875900  1.0
  C  C727  1  0.41839900  0.39579900  0.66026000  1.0
  C  C728  1  0.41839900  0.66026000  0.39579900  1.0
  C  C729  1  0.41840000  0.02553930  0.66026000  1.0
  C  C730  1  0.41840000  0.66026100  0.02553960  1.0
  C  C731  1  0.41840000  0.39580000  0.02553960  1.0
  C  C732  1  0.41840100  0.02553930  0.39579900  1.0
  C  C733  1  0.42213000  0.05444900  0.27471000  1.0
  C  C734  1  0.42213000  0.05444920  0.74870900  1.0
  C  C735  1  0.42213000  0.74870900  0.27471000  1.0
  C  C736  1  0.42213000  0.27471000  0.74870900  1.0
  C  C737  1  0.42213000  0.74870900  0.05444900  1.0
  C  C738  1  0.42213100  0.27471000  0.05444900  1.0
  C  C739  1  0.42589900  0.82792000  0.89267900  1.0
  C  C740  1  0.42589900  0.89267900  0.82792000  1.0
  C  C741  1  0.42589900  0.89268000  0.35350000  1.0
  C  C742  1  0.42589900  0.35349900  0.82792000  1.0
  C  C743  1  0.42589900  0.82792000  0.35350000  1.0
  C  C744  1  0.42590000  0.35350000  0.89267900  1.0
  C  C745  1  0.42814000  0.06207940  0.72142000  1.0
  C  C746  1  0.42814000  0.06208030  0.28835900  1.0
  C  C747  1  0.42814000  0.28836000  0.72142000  1.0
  C  C748  1  0.42814000  0.28836100  0.06207930  1.0
  C  C749  1  0.42814000  0.72142000  0.06207930  1.0
  C  C750  1  0.42814000  0.72142000  0.28835900  1.0
  C  C751  1  0.43691900  0.34769900  0.80408000  1.0
  C  C752  1  0.43691900  0.80408000  0.34770000  1.0
  C  C753  1  0.43691900  0.91130000  0.34770000  1.0
  C  C754  1  0.43692000  0.34769900  0.91130000  1.0
  C  C755  1  0.43692000  0.80407900  0.91130000  1.0
  C  C756  1  0.43692000  0.91129900  0.80408000  1.0
  C  C757  1  0.43969900  0.97876000  0.66492000  1.0
  C  C758  1  0.43969900  0.97875900  0.41662100  1.0
  C  C759  1  0.43969900  0.41662000  0.66492000  1.0
  C  C760  1  0.43969900  0.66492000  0.41662100  1.0
  C  C761  1  0.43970000  0.41661900  0.97875900  1.0
  C  C762  1  0.43970000  0.66492100  0.97875900  1.0
  C  C763  1  0.44165900  0.39612000  0.00351988  1.0
  C  C764  1  0.44166000  0.39611900  0.65869900  1.0
  C  C765  1  0.44166000  0.00352055  0.65869900  1.0
  C  C766  1  0.44166000  0.00352024  0.39611900  1.0
  C  C767  1  0.44166000  0.65870000  0.39611900  1.0
  C  C768  1  0.44166100  0.65869900  0.00351988  1.0
  C  C769  1  0.44334900  0.77898900  0.91045000  1.0
  C  C770  1  0.44334900  0.36720900  0.91045000  1.0
  C  C771  1  0.44334900  0.91044900  0.36721000  1.0
  C  C772  1  0.44335000  0.77899000  0.36721000  1.0
  C  C773  1  0.44335000  0.91044900  0.77898900  1.0
  C  C774  1  0.44335100  0.36721000  0.77898900  1.0
  C  C775  1  0.44756800  0.80621000  0.92543000  1.0
  C  C776  1  0.44756900  0.32079000  0.92543000  1.0
  C  C777  1  0.44756900  0.32079000  0.80621000  1.0
  C  C778  1  0.44756900  0.92542800  0.80621000  1.0
  C  C779  1  0.44757000  0.80620900  0.32079100  1.0
  C  C780  1  0.44757000  0.92543000  0.32079100  1.0
  C  C781  1  0.45239900  0.04570010  0.29266100  1.0
  C  C782  1  0.45239900  0.29266000  0.70924000  1.0
  C  C783  1  0.45239900  0.70924000  0.04570000  1.0
  C  C784  1  0.45239900  0.04570040  0.70924000  1.0
  C  C785  1  0.45240000  0.29265900  0.04570000  1.0
  C  C786  1  0.45240000  0.70923900  0.29266100  1.0
  C  C787  1  0.45632900  0.75673000  0.92735000  1.0
  C  C788  1  0.45633000  0.92734900  0.35958900  1.0
  C  C789  1  0.45633000  0.35958900  0.75672900  1.0
  C  C790  1  0.45633000  0.92734900  0.75672900  1.0
  C  C791  1  0.45633000  0.75673000  0.35958900  1.0
  C  C792  1  0.45633000  0.35958900  0.92735000  1.0
  C  C793  1  0.46193900  0.31358000  0.94134000  1.0
  C  C794  1  0.46193900  0.31357900  0.78314000  1.0
  C  C795  1  0.46193900  0.94133900  0.31357900  1.0
  C  C796  1  0.46194000  0.94133900  0.78314000  1.0
  C  C797  1  0.46194000  0.78313900  0.31357900  1.0
  C  C798  1  0.46194000  0.78314000  0.94134000  1.0
  C  C799  1  0.46563900  0.37392000  0.00348090  1.0
  C  C800  1  0.46563900  0.00347977  0.37392000  1.0
  C  C801  1  0.46563900  0.65696000  0.37392000  1.0
  C  C802  1  0.46563900  0.00347896  0.65696100  1.0
  C  C803  1  0.46563900  0.37391900  0.65696100  1.0
  C  C804  1  0.46563900  0.65695900  0.00348090  1.0
  C  C805  1  0.47008800  0.75983000  0.33209100  1.0
  C  C806  1  0.47008900  0.33209000  0.93799000  1.0
  C  C807  1  0.47008900  0.33209000  0.75983000  1.0
  C  C808  1  0.47008900  0.93798900  0.33209100  1.0
  C  C809  1  0.47009000  0.75983000  0.93799000  1.0
  C  C810  1  0.47009000  0.93798900  0.75983000  1.0
  C  C811  1  0.48392900  0.95422900  0.73919000  1.0
  C  C812  1  0.48392900  0.32264900  0.73919000  1.0
  C  C813  1  0.48392900  0.73919000  0.32265000  1.0
  C  C814  1  0.48393000  0.95422900  0.32265000  1.0
  C  C815  1  0.48393000  0.73918900  0.95422900  1.0
  C  C816  1  0.48393100  0.32264900  0.95422900  1.0
  C  C817  1  0.51607000  0.04576950  0.26081000  1.0
  C  C818  1  0.51607000  0.26081000  0.04577010  1.0
  C  C819  1  0.51607000  0.26081100  0.67734900  1.0
  C  C820  1  0.51607000  0.67735000  0.04577010  1.0
  C  C821  1  0.51607000  0.67735000  0.26081000  1.0
  C  C822  1  0.51607100  0.04577050  0.67734900  1.0
  C  C823  1  0.52990900  0.06200980  0.24017000  1.0
  C  C824  1  0.52990900  0.24017100  0.06200910  1.0
  C  C825  1  0.52990900  0.66791100  0.06200910  1.0
  C  C826  1  0.52991000  0.06200920  0.66791000  1.0
  C  C827  1  0.52991000  0.24017000  0.66791000  1.0
  C  C828  1  0.52991000  0.66790900  0.24017000  1.0
  C  C829  1  0.53436000  0.62608000  0.34304000  1.0
  C  C830  1  0.53436000  0.99652000  0.34304000  1.0
  C  C831  1  0.53436000  0.34303900  0.99652000  1.0
  C  C832  1  0.53436000  0.34303900  0.62607900  1.0
  C  C833  1  0.53436000  0.62607900  0.99652000  1.0
  C  C834  1  0.53436000  0.99651900  0.62607900  1.0
  C  C835  1  0.53805900  0.21685900  0.05866080  1.0
  C  C836  1  0.53805900  0.21686000  0.68642000  1.0
  C  C837  1  0.53805900  0.05865910  0.21686000  1.0
  C  C838  1  0.53805900  0.68641900  0.21686000  1.0
  C  C839  1  0.53806000  0.05866000  0.68642000  1.0
  C  C840  1  0.53806000  0.68641900  0.05866080  1.0
  C  C841  1  0.54366900  0.64041000  0.07265060  1.0
  C  C842  1  0.54366900  0.07264970  0.64041000  1.0
  C  C843  1  0.54366900  0.07265060  0.24326900  1.0
  C  C844  1  0.54366900  0.24327000  0.07265060  1.0
  C  C845  1  0.54367000  0.64041000  0.24326900  1.0
  C  C846  1  0.54367000  0.24327000  0.64041000  1.0
  C  C847  1  0.54759800  0.70734000  0.29076000  1.0
  C  C848  1  0.54759900  0.29076000  0.70734000  1.0
  C  C849  1  0.54759900  0.70734000  0.95429900  1.0
  C  C850  1  0.54759900  0.95430000  0.70734000  1.0
  C  C851  1  0.54759900  0.95430000  0.29076000  1.0
  C  C852  1  0.54760000  0.29076000  0.95429900  1.0
  C  C853  1  0.55242800  0.67921000  0.07457040  1.0
  C  C854  1  0.55242900  0.07456890  0.67921000  1.0
  C  C855  1  0.55242900  0.19379000  0.67921000  1.0
  C  C856  1  0.55242900  0.19379100  0.07457040  1.0
  C  C857  1  0.55243000  0.07457020  0.19379000  1.0
  C  C858  1  0.55243000  0.67920900  0.19379000  1.0
  C  C859  1  0.55664900  0.22101100  0.63278900  1.0
  C  C860  1  0.55664900  0.63279000  0.22101000  1.0
  C  C861  1  0.55665000  0.08955020  0.63278900  1.0
  C  C862  1  0.55665000  0.08955030  0.22101000  1.0
  C  C863  1  0.55665000  0.22100900  0.08955040  1.0
  C  C864  1  0.55665000  0.63279000  0.08955040  1.0
  C  C865  1  0.55833900  0.60388100  0.99647900  1.0
  C  C866  1  0.55834000  0.99647900  0.60388000  1.0
  C  C867  1  0.55834000  0.60388000  0.34130000  1.0
  C  C868  1  0.55834000  0.34129900  0.60388000  1.0
  C  C869  1  0.55834100  0.34130000  0.99647900  1.0
  C  C870  1  0.55834100  0.99647900  0.34130000  1.0
  C  C871  1  0.56029900  0.33508000  0.58338000  1.0
  C  C872  1  0.56029900  0.58337900  0.33508100  1.0
  C  C873  1  0.56029900  0.33508000  0.02124010  1.0
  C  C874  1  0.56029900  0.58338000  0.02124010  1.0
  C  C875  1  0.56029900  0.02124060  0.33508100  1.0
  C  C876  1  0.56030000  0.02124000  0.58338000  1.0
  C  C877  1  0.56307800  0.08870050  0.65230000  1.0
  C  C878  1  0.56307900  0.65229900  0.08870060  1.0
  C  C879  1  0.56307900  0.08870000  0.19592100  1.0
  C  C880  1  0.56307900  0.19592000  0.08870060  1.0
  C  C881  1  0.56307900  0.19592000  0.65230000  1.0
  C  C882  1  0.56308000  0.65229900  0.19592100  1.0
  C  C883  1  0.57185900  0.27857900  0.71163900  1.0
  C  C884  1  0.57185900  0.71163900  0.27857900  1.0
  C  C885  1  0.57186000  0.71164000  0.93791900  1.0
  C  C886  1  0.57186100  0.93791900  0.71163900  1.0
  C  C887  1  0.57186100  0.27857900  0.93791900  1.0
  C  C888  1  0.57186100  0.93792000  0.27857900  1.0
  C  C889  1  0.57409800  0.10732000  0.64650000  1.0
  C  C890  1  0.57409900  0.17208000  0.64650000  1.0
  C  C891  1  0.57410000  0.17208100  0.10731900  1.0
  C  C892  1  0.57410000  0.64649900  0.10731900  1.0
  C  C893  1  0.57410000  0.64649900  0.17208000  1.0
  C  C894  1  0.57410000  0.10731900  0.17208000  1.0
  C  C895  1  0.57786900  0.72528900  0.25128900  1.0
  C  C896  1  0.57786900  0.25128900  0.72529000  1.0
  C  C897  1  0.57787000  0.25129000  0.94555000  1.0
  C  C898  1  0.57787000  0.72528900  0.94555000  1.0
  C  C899  1  0.57787000  0.94555000  0.72529000  1.0
  C  C900  1  0.57787000  0.94555000  0.25128900  1.0
  C  C901  1  0.58159900  0.97445900  0.33974100  1.0
  C  C902  1  0.58159900  0.33974100  0.97445900  1.0
  C  C903  1  0.58160000  0.33973900  0.60419900  1.0
  C  C904  1  0.58160000  0.97446000  0.60419900  1.0
  C  C905  1  0.58160000  0.60419900  0.33974100  1.0
  C  C906  1  0.58160100  0.60419900  0.97445900  1.0
  C  C907  1  0.58337900  0.33508000  0.56030000  1.0
  C  C908  1  0.58337900  0.02124060  0.33508100  1.0
  C  C909  1  0.58337900  0.56030000  0.33508100  1.0
  C  C910  1  0.58338000  0.02123950  0.56030000  1.0
  C  C911  1  0.58338000  0.33508000  0.02124010  1.0
  C  C912  1  0.58338100  0.56029900  0.02124010  1.0
  C  C913  1  0.59114900  0.29037000  0.92118900  1.0
  C  C914  1  0.59114900  0.92118900  0.29037100  1.0
  C  C915  1  0.59114900  0.92119000  0.69728900  1.0
  C  C916  1  0.59114900  0.69729000  0.29037100  1.0
  C  C917  1  0.59115000  0.29037100  0.69728900  1.0
  C  C918  1  0.59115000  0.69728900  0.92118900  1.0
  C  C919  1  0.60298000  0.23638000  0.72669900  1.0
  C  C920  1  0.60298000  0.23638000  0.93394000  1.0
  C  C921  1  0.60298000  0.72669900  0.93394000  1.0
  C  C922  1  0.60298000  0.72670000  0.23638000  1.0
  C  C923  1  0.60298000  0.93394000  0.23638000  1.0
  C  C924  1  0.60298000  0.93393900  0.72669900  1.0
  C  C925  1  0.60388000  0.34130000  0.55834000  1.0
  C  C926  1  0.60388000  0.55833900  0.99647900  1.0
  C  C927  1  0.60388000  0.99647900  0.55834000  1.0
  C  C928  1  0.60388000  0.34130000  0.99647900  1.0
  C  C929  1  0.60388000  0.55834000  0.34130000  1.0
  C  C930  1  0.60388000  0.99647900  0.34130000  1.0
  C  C931  1  0.60419900  0.58160000  0.97445900  1.0
  C  C932  1  0.60419900  0.97446000  0.58159900  1.0
  C  C933  1  0.60419900  0.97445900  0.33974100  1.0
  C  C934  1  0.60419900  0.33974100  0.97445900  1.0
  C  C935  1  0.60420000  0.58160000  0.33974100  1.0
  C  C936  1  0.60420000  0.33974100  0.58159900  1.0
  C  C937  1  0.61631900  0.27510000  0.69780000  1.0
  C  C938  1  0.61631900  0.69779900  0.27510000  1.0
  C  C939  1  0.61631900  0.27509900  0.91078000  1.0
  C  C940  1  0.61631900  0.69779900  0.91078000  1.0
  C  C941  1  0.61631900  0.91078000  0.27510000  1.0
  C  C942  1  0.61631900  0.91078000  0.69780000  1.0
  C  C943  1  0.62114000  0.71463900  0.91499900  1.0
  C  C944  1  0.62114000  0.24922100  0.91499900  1.0
  C  C945  1  0.62114000  0.24922100  0.71463900  1.0
  C  C946  1  0.62114000  0.91499900  0.71463900  1.0
  C  C947  1  0.62114000  0.71464000  0.24922000  1.0
  C  C948  1  0.62114000  0.91500000  0.24922000  1.0
  C  C949  1  0.62607900  0.53435900  0.34304000  1.0
  C  C950  1  0.62607900  0.34304000  0.53435900  1.0
  C  C951  1  0.62607900  0.53435900  0.99652000  1.0
  C  C952  1  0.62607900  0.99652000  0.53435900  1.0
  C  C953  1  0.62608000  0.34303900  0.99652000  1.0
  C  C954  1  0.62608000  0.99652000  0.34304000  1.0
  C  C955  1  0.63278900  0.55665000  0.08955040  1.0
  C  C956  1  0.63278900  0.08955030  0.22101000  1.0
  C  C957  1  0.63279000  0.22100900  0.08955040  1.0
  C  C958  1  0.63279000  0.55665000  0.22101000  1.0
  C  C959  1  0.63279000  0.08955000  0.55665000  1.0
  C  C960  1  0.63279000  0.22101000  0.55665000  1.0
  C  C961  1  0.64040900  0.54366900  0.07265060  1.0
  C  C962  1  0.64041000  0.07264970  0.54366900  1.0
  C  C963  1  0.64041000  0.07265060  0.24326900  1.0
  C  C964  1  0.64041000  0.24327000  0.54366900  1.0
  C  C965  1  0.64041000  0.24327000  0.07265060  1.0
  C  C966  1  0.64041000  0.54367000  0.24326900  1.0
  C  C967  1  0.64609900  0.23422000  0.71650000  1.0
  C  C968  1  0.64610000  0.90317900  0.71650000  1.0
  C  C969  1  0.64610000  0.90317900  0.23422000  1.0
  C  C970  1  0.64610000  0.71650100  0.90317900  1.0
  C  C971  1  0.64610000  0.71649900  0.23422000  1.0
  C  C972  1  0.64610100  0.23422000  0.90317900  1.0
  C  C973  1  0.64649900  0.10732000  0.57409900  1.0
  C  C974  1  0.64649900  0.57410000  0.10731900  1.0
  C  C975  1  0.64650000  0.17208000  0.57409900  1.0
  C  C976  1  0.64650000  0.17208100  0.10731900  1.0
  C  C977  1  0.64650000  0.10731900  0.17208000  1.0
  C  C978  1  0.64650000  0.57409900  0.17208000  1.0
  C  C979  1  0.64930900  0.02039040  0.68671000  1.0
  C  C980  1  0.64930900  0.68671000  0.02039040  1.0
  C  C981  1  0.64930900  0.68671000  0.14359000  1.0
  C  C982  1  0.64930900  0.14359000  0.02039040  1.0
  C  C983  1  0.64930900  0.14358900  0.68671000  1.0
  C  C984  1  0.64931000  0.02038980  0.14359000  1.0
  C  C985  1  0.65229900  0.08870040  0.56307900  1.0
  C  C986  1  0.65229900  0.56308000  0.08870060  1.0
  C  C987  1  0.65230000  0.19592000  0.56307900  1.0
  C  C988  1  0.65230000  0.08870000  0.19592100  1.0
  C  C989  1  0.65230000  0.19592000  0.08870060  1.0
  C  C990  1  0.65230000  0.56308000  0.19592100  1.0
  C  C991  1  0.65360900  0.12987100  0.06290960  1.0
  C  C992  1  0.65361000  0.06290970  0.65361000  1.0
  C  C993  1  0.65361000  0.12986900  0.65361000  1.0
  C  C994  1  0.65361000  0.06291020  0.12986900  1.0
  C  C995  1  0.65361000  0.65361000  0.06290960  1.0
  C  C996  1  0.65361100  0.65360900  0.12986900  1.0
  C  C997  1  0.65695900  0.46564000  0.00348090  1.0
  C  C998  1  0.65695900  0.46564000  0.37392000  1.0
  C  C999  1  0.65696000  0.00347936  0.46564000  1.0
  C  C1000  1  0.65696000  0.00347977  0.37392000  1.0
  C  C1001  1  0.65696000  0.37391900  0.46564000  1.0
  C  C1002  1  0.65696000  0.37392000  0.00348090  1.0
  C  C1003  1  0.65869900  0.00352000  0.44165900  1.0
  C  C1004  1  0.65869900  0.39612100  0.44165900  1.0
  C  C1005  1  0.65869900  0.44166000  0.00351988  1.0
  C  C1006  1  0.65870000  0.00352024  0.39611900  1.0
  C  C1007  1  0.65870000  0.39612000  0.00351988  1.0
  C  C1008  1  0.65870000  0.44166000  0.39611900  1.0
  C  C1009  1  0.66025900  0.02553970  0.41840000  1.0
  C  C1010  1  0.66025900  0.39580000  0.02553960  1.0
  C  C1011  1  0.66026000  0.02553930  0.39579900  1.0
  C  C1012  1  0.66026000  0.39580000  0.41840000  1.0
  C  C1013  1  0.66026000  0.41840000  0.02553960  1.0
  C  C1014  1  0.66026100  0.41839900  0.39579900  1.0
  C  C1015  1  0.66099800  0.14842100  0.69802000  1.0
  C  C1016  1  0.66099900  0.69802000  0.14842000  1.0
  C  C1017  1  0.66100000  0.14842000  0.99255900  1.0
  C  C1018  1  0.66100000  0.99255900  0.14842000  1.0
  C  C1019  1  0.66100000  0.99255900  0.69802000  1.0
  C  C1020  1  0.66100100  0.69801900  0.99255900  1.0
  C  C1021  1  0.66183900  0.03424110  0.66183900  1.0
  C  C1022  1  0.66183900  0.66183900  0.14208000  1.0
  C  C1023  1  0.66183900  0.14208000  0.66183900  1.0
  C  C1024  1  0.66183900  0.66184000  0.03423990  1.0
  C  C1025  1  0.66183900  0.14208100  0.03423990  1.0
  C  C1026  1  0.66184000  0.03423920  0.14208000  1.0
  C  C1027  1  0.66491900  0.97875900  0.43970000  1.0
  C  C1028  1  0.66491900  0.97875900  0.41662100  1.0
  C  C1029  1  0.66491900  0.43970000  0.41662100  1.0
  C  C1030  1  0.66492000  0.41661900  0.97875900  1.0
  C  C1031  1  0.66492000  0.41661900  0.43970000  1.0
  C  C1032  1  0.66492000  0.43970000  0.97875900  1.0
  C  C1033  1  0.66790900  0.24017000  0.52991000  1.0
  C  C1034  1  0.66790900  0.52990900  0.24017000  1.0
  C  C1035  1  0.66791000  0.24017100  0.06200910  1.0
  C  C1036  1  0.66791000  0.06200980  0.24017000  1.0
  C  C1037  1  0.66791000  0.06201050  0.52991000  1.0
  C  C1038  1  0.66791000  0.52991100  0.06200910  1.0
  C  C1039  1  0.67734900  0.26081000  0.51607000  1.0
  C  C1040  1  0.67734900  0.26081000  0.04577010  1.0
  C  C1041  1  0.67734900  0.51607000  0.26081000  1.0
  C  C1042  1  0.67735000  0.04576950  0.26081000  1.0
  C  C1043  1  0.67735000  0.04576970  0.51607000  1.0
  C  C1044  1  0.67735000  0.51607000  0.04577010  1.0
  C  C1045  1  0.67920800  0.55243000  0.19379000  1.0
  C  C1046  1  0.67920900  0.07457020  0.19379000  1.0
  C  C1047  1  0.67920900  0.19379000  0.55243000  1.0
  C  C1048  1  0.67920900  0.19379100  0.07457040  1.0
  C  C1049  1  0.67921000  0.07456950  0.55243000  1.0
  C  C1050  1  0.67921000  0.55243000  0.07457040  1.0
  C  C1051  1  0.67996900  0.81014900  0.83267000  1.0
  C  C1052  1  0.67997000  0.83266900  0.17721000  1.0
  C  C1053  1  0.67997000  0.17721000  0.81014900  1.0
  C  C1054  1  0.67997000  0.81014900  0.17721000  1.0
  C  C1055  1  0.67997000  0.83266900  0.81014900  1.0
  C  C1056  1  0.67997000  0.17720900  0.83267000  1.0
  C  C1057  1  0.68641900  0.05865970  0.53806000  1.0
  C  C1058  1  0.68641900  0.53805900  0.05866080  1.0
  C  C1059  1  0.68642000  0.53805900  0.21686000  1.0
  C  C1060  1  0.68642000  0.05865910  0.21686000  1.0
  C  C1061  1  0.68642000  0.21685900  0.05866080  1.0
  C  C1062  1  0.68642000  0.21686000  0.53806000  1.0
  C  C1063  1  0.68670900  0.14359100  0.64930900  1.0
  C  C1064  1  0.68670900  0.64930900  0.14359000  1.0
  C  C1065  1  0.68670900  0.14359000  0.02039040  1.0
  C  C1066  1  0.68671000  0.02038980  0.64930900  1.0
  C  C1067  1  0.68671000  0.64930900  0.02039040  1.0
  C  C1068  1  0.68671000  0.02038980  0.14359000  1.0
  C  C1069  1  0.68679900  0.21938000  0.78566000  1.0
  C  C1070  1  0.68679900  0.78566000  0.21938100  1.0
  C  C1071  1  0.68679900  0.80815900  0.78566000  1.0
  C  C1072  1  0.68679900  0.78565900  0.80815900  1.0
  C  C1073  1  0.68680000  0.80815900  0.21938100  1.0
  C  C1074  1  0.68680100  0.21937900  0.80815900  1.0
  C  C1075  1  0.68724900  0.68725000  0.14589000  1.0
  C  C1076  1  0.68724900  0.14589000  0.97961000  1.0
  C  C1077  1  0.68724900  0.68724900  0.97961000  1.0
  C  C1078  1  0.68724900  0.97960900  0.68725000  1.0
  C  C1079  1  0.68724900  0.97961000  0.14589000  1.0
  C  C1080  1  0.68725000  0.14589000  0.68725000  1.0
  C  C1081  1  0.68896900  0.19631000  0.76303100  1.0
  C  C1082  1  0.68897000  0.19631000  0.85169000  1.0
  C  C1083  1  0.68897000  0.85168800  0.76303100  1.0
  C  C1084  1  0.68897000  0.76302900  0.19631000  1.0
  C  C1085  1  0.68897000  0.76302900  0.85169000  1.0
  C  C1086  1  0.68897000  0.85169000  0.19631000  1.0
  C  C1087  1  0.68958800  0.82921000  0.78551000  1.0
  C  C1088  1  0.68958900  0.19569100  0.82920900  1.0
  C  C1089  1  0.68958900  0.82920800  0.19569100  1.0
  C  C1090  1  0.68958900  0.78551000  0.19569100  1.0
  C  C1091  1  0.68958900  0.78551000  0.82920900  1.0
  C  C1092  1  0.68959000  0.19568900  0.78551000  1.0
  C  C1093  1  0.69469900  0.15850000  0.69469900  1.0
  C  C1094  1  0.69469900  0.69469900  0.95210000  1.0
  C  C1095  1  0.69469900  0.69469900  0.15850000  1.0
  C  C1096  1  0.69469900  0.15850000  0.95210000  1.0
  C  C1097  1  0.69469900  0.95210000  0.15850000  1.0
  C  C1098  1  0.69470000  0.95209900  0.69469900  1.0
  C  C1099  1  0.69728900  0.92118900  0.29037100  1.0
  C  C1100  1  0.69728900  0.29037000  0.92118900  1.0
  C  C1101  1  0.69728900  0.59114900  0.29037100  1.0
  C  C1102  1  0.69728900  0.59115000  0.92118900  1.0
  C  C1103  1  0.69729000  0.92118900  0.59114900  1.0
  C  C1104  1  0.69729000  0.29036900  0.59114900  1.0
  C  C1105  1  0.69779900  0.91078000  0.27510000  1.0
  C  C1106  1  0.69779900  0.27509900  0.91078000  1.0
  C  C1107  1  0.69779900  0.61632000  0.27510000  1.0
  C  C1108  1  0.69779900  0.27509900  0.61632000  1.0
  C  C1109  1  0.69779900  0.91077900  0.61632000  1.0
  C  C1110  1  0.69779900  0.61631900  0.91078000  1.0
  C  C1111  1  0.69801900  0.66100000  0.99255900  1.0
  C  C1112  1  0.69801900  0.99256000  0.66099900  1.0
  C  C1113  1  0.69802000  0.14842000  0.99255900  1.0
  C  C1114  1  0.69802000  0.99255900  0.14842000  1.0
  C  C1115  1  0.69802000  0.66099900  0.14842000  1.0
  C  C1116  1  0.69802000  0.14842000  0.66099900  1.0
  C  C1117  1  0.70733900  0.54760000  0.95429900  1.0
  C  C1118  1  0.70733900  0.95429900  0.54760100  1.0
  C  C1119  1  0.70733900  0.29076000  0.54760100  1.0
  C  C1120  1  0.70734000  0.95430000  0.29076000  1.0
  C  C1121  1  0.70734000  0.54760000  0.29076000  1.0
  C  C1122  1  0.70734100  0.29076000  0.95429900  1.0
  C  C1123  1  0.70923900  0.04569970  0.45240000  1.0
  C  C1124  1  0.70923900  0.04570010  0.29266100  1.0
  C  C1125  1  0.70923900  0.45240000  0.29266100  1.0
  C  C1126  1  0.70924000  0.29265900  0.04570000  1.0
  C  C1127  1  0.70924000  0.29266000  0.45240000  1.0
  C  C1128  1  0.70924000  0.45239900  0.04570000  1.0
  C  C1129  1  0.70962900  0.30270900  0.40885000  1.0
  C  C1130  1  0.70962900  0.07881030  0.40885000  1.0
  C  C1131  1  0.70963000  0.40884900  0.30271000  1.0
  C  C1132  1  0.70963000  0.07881060  0.30271000  1.0
  C  C1133  1  0.70963000  0.30271000  0.07880950  1.0
  C  C1134  1  0.70963000  0.40884900  0.07880950  1.0
  C  C1135  1  0.71163900  0.57186000  0.27857900  1.0
  C  C1136  1  0.71163900  0.93792000  0.57186000  1.0
  C  C1137  1  0.71163900  0.57186000  0.93791900  1.0
  C  C1138  1  0.71163900  0.27858000  0.57186000  1.0
  C  C1139  1  0.71164000  0.27857900  0.93791900  1.0
  C  C1140  1  0.71164000  0.93792000  0.27857900  1.0
  C  C1141  1  0.71463900  0.24922100  0.62114000  1.0
  C  C1142  1  0.71463900  0.24922100  0.91499900  1.0
  C  C1143  1  0.71463900  0.62113900  0.24922000  1.0
  C  C1144  1  0.71463900  0.91500000  0.24922000  1.0
  C  C1145  1  0.71464000  0.62114000  0.91499900  1.0
  C  C1146  1  0.71464000  0.91499900  0.62114000  1.0
  C  C1147  1  0.71649900  0.64610000  0.90317900  1.0
  C  C1148  1  0.71650000  0.90317900  0.64609900  1.0
  C  C1149  1  0.71650000  0.90317900  0.23422000  1.0
  C  C1150  1  0.71650000  0.23422000  0.90317900  1.0
  C  C1151  1  0.71650000  0.64610000  0.23422000  1.0
  C  C1152  1  0.71650100  0.23422000  0.64609900  1.0
  C  C1153  1  0.72141900  0.06208030  0.28835900  1.0
  C  C1154  1  0.72141900  0.28836100  0.06207930  1.0
  C  C1155  1  0.72142000  0.42814000  0.06207930  1.0
  C  C1156  1  0.72142000  0.06207940  0.42813900  1.0
  C  C1157  1  0.72142000  0.28836000  0.42813900  1.0
  C  C1158  1  0.72142000  0.42814000  0.28835900  1.0
  C  C1159  1  0.72489900  0.08921950  0.38368100  1.0
  C  C1160  1  0.72489900  0.30220000  0.38368100  1.0
  C  C1161  1  0.72490000  0.38368000  0.30219900  1.0
  C  C1162  1  0.72490000  0.38368000  0.08921900  1.0
  C  C1163  1  0.72490000  0.08921960  0.30219900  1.0
  C  C1164  1  0.72490000  0.30220100  0.08921900  1.0
  C  C1165  1  0.72528900  0.25129000  0.57787000  1.0
  C  C1166  1  0.72529000  0.25129000  0.94555000  1.0
  C  C1167  1  0.72529000  0.57787000  0.94555000  1.0
  C  C1168  1  0.72529000  0.57787000  0.25128900  1.0
  C  C1169  1  0.72529000  0.94555000  0.25128900  1.0
  C  C1170  1  0.72529000  0.94554900  0.57787000  1.0
  C  C1171  1  0.72669900  0.23638000  0.93394000  1.0
  C  C1172  1  0.72669900  0.93394000  0.23638000  1.0
  C  C1173  1  0.72670000  0.23638100  0.60297900  1.0
  C  C1174  1  0.72670000  0.60298000  0.93394000  1.0
  C  C1175  1  0.72670100  0.60297900  0.23638000  1.0
  C  C1176  1  0.72670100  0.93393900  0.60297900  1.0
  C  C1177  1  0.73335900  0.13492000  0.89835900  1.0
  C  C1178  1  0.73335900  0.73336000  0.13491900  1.0
  C  C1179  1  0.73335900  0.89836000  0.13491900  1.0
  C  C1180  1  0.73336000  0.89836100  0.73335900  1.0
  C  C1181  1  0.73336000  0.13491900  0.73335900  1.0
  C  C1182  1  0.73336100  0.73335900  0.89835900  1.0
  C  C1183  1  0.73543900  0.77469900  0.10130100  1.0
  C  C1184  1  0.73543900  0.88856000  0.10130100  1.0
  C  C1185  1  0.73544000  0.10130000  0.88855900  1.0
  C  C1186  1  0.73544000  0.10129900  0.77469900  1.0
  C  C1187  1  0.73544100  0.77469900  0.88855900  1.0
  C  C1188  1  0.73544100  0.88855900  0.77469900  1.0
  C  C1189  1  0.73919000  0.32264900  0.95422900  1.0
  C  C1190  1  0.73919000  0.48392900  0.95422900  1.0
  C  C1191  1  0.73919000  0.48393000  0.32265000  1.0
  C  C1192  1  0.73919000  0.95422900  0.32265000  1.0
  C  C1193  1  0.73919000  0.95422900  0.48392900  1.0
  C  C1194  1  0.73919000  0.32264900  0.48392900  1.0
  C  C1195  1  0.74701800  0.74702000  0.89588000  1.0
  C  C1196  1  0.74701900  0.11008000  0.89588000  1.0
  C  C1197  1  0.74701900  0.89588000  0.74702000  1.0
  C  C1198  1  0.74701900  0.89588000  0.11007900  1.0
  C  C1199  1  0.74702000  0.11007900  0.74702000  1.0
  C  C1200  1  0.74702100  0.74702000  0.11007900  1.0
  C  C1201  1  0.74870900  0.05444900  0.27471000  1.0
  C  C1202  1  0.74870900  0.05445000  0.42213000  1.0
  C  C1203  1  0.74871000  0.42212900  0.27471000  1.0
  C  C1204  1  0.74871000  0.27470900  0.42213000  1.0
  C  C1205  1  0.74871000  0.27471000  0.05444900  1.0
  C  C1206  1  0.74871000  0.42212900  0.05444900  1.0
  C  C1207  1  0.75075900  0.79027900  0.07911930  1.0
  C  C1208  1  0.75075900  0.87984000  0.07911930  1.0
  C  C1209  1  0.75075900  0.07911990  0.79027900  1.0
  C  C1210  1  0.75075900  0.07912090  0.87983900  1.0
  C  C1211  1  0.75076000  0.79027900  0.87983900  1.0
  C  C1212  1  0.75076000  0.87983900  0.79027900  1.0
  C  C1213  1  0.75078000  0.08499940  0.37886100  1.0
  C  C1214  1  0.75078000  0.08500000  0.28536000  1.0
  C  C1215  1  0.75078000  0.28536000  0.08499950  1.0
  C  C1216  1  0.75078000  0.37885900  0.28536000  1.0
  C  C1217  1  0.75078000  0.28536000  0.37886100  1.0
  C  C1218  1  0.75078100  0.37885900  0.08499950  1.0
  C  C1219  1  0.75672900  0.45632900  0.92735000  1.0
  C  C1220  1  0.75672900  0.92735000  0.45632900  1.0
  C  C1221  1  0.75673000  0.92734900  0.35958900  1.0
  C  C1222  1  0.75673000  0.35958900  0.92735000  1.0
  C  C1223  1  0.75673000  0.45633100  0.35958900  1.0
  C  C1224  1  0.75673000  0.35959000  0.45632900  1.0
  C  C1225  1  0.75982900  0.33209000  0.93799000  1.0
  C  C1226  1  0.75982900  0.47009000  0.93799000  1.0
  C  C1227  1  0.75982900  0.93798900  0.33209100  1.0
  C  C1228  1  0.75982900  0.93799000  0.47008900  1.0
  C  C1229  1  0.75983000  0.47008900  0.33209100  1.0
  C  C1230  1  0.75983100  0.33209000  0.47008900  1.0
  C  C1231  1  0.76302900  0.19631000  0.68896900  1.0
  C  C1232  1  0.76302900  0.85169000  0.19631000  1.0
  C  C1233  1  0.76302900  0.85169000  0.68896900  1.0
  C  C1234  1  0.76302900  0.19631000  0.85169000  1.0
  C  C1235  1  0.76302900  0.68896900  0.19631000  1.0
  C  C1236  1  0.76302900  0.68896900  0.85169000  1.0
  C  C1237  1  0.76361900  0.06606030  0.27329900  1.0
  C  C1238  1  0.76361900  0.06605990  0.39701900  1.0
  C  C1239  1  0.76361900  0.27330000  0.06605910  1.0
  C  C1240  1  0.76362000  0.39701900  0.27329900  1.0
  C  C1241  1  0.76362000  0.27330000  0.39701900  1.0
  C  C1242  1  0.76362000  0.39701900  0.06605910  1.0
  C  C1243  1  0.76577900  0.09681960  0.28350000  1.0
  C  C1244  1  0.76577900  0.09682010  0.35390000  1.0
  C  C1245  1  0.76577900  0.28350000  0.09682010  1.0
  C  C1246  1  0.76578000  0.35389900  0.28350000  1.0
  C  C1247  1  0.76578000  0.35390000  0.09682010  1.0
  C  C1248  1  0.76578000  0.28350000  0.35390000  1.0
  C  C1249  1  0.77469900  0.73544000  0.88855900  1.0
  C  C1250  1  0.77469900  0.88856100  0.73543900  1.0
  C  C1251  1  0.77469900  0.88856000  0.10130100  1.0
  C  C1252  1  0.77470000  0.10130000  0.88855900  1.0
  C  C1253  1  0.77470000  0.73543900  0.10130100  1.0
  C  C1254  1  0.77470100  0.10129900  0.73543900  1.0
  C  C1255  1  0.77784900  0.06751040  0.77784900  1.0
  C  C1256  1  0.77784900  0.77785000  0.06750920  1.0
  C  C1257  1  0.77784900  0.06751010  0.87678900  1.0
  C  C1258  1  0.77784900  0.87679000  0.06750920  1.0
  C  C1259  1  0.77785000  0.87679100  0.77784900  1.0
  C  C1260  1  0.77785100  0.77784900  0.87678900  1.0
  C  C1261  1  0.77898800  0.44335000  0.91045000  1.0
  C  C1262  1  0.77898900  0.36720900  0.91045000  1.0
  C  C1263  1  0.77899000  0.91044900  0.36721000  1.0
  C  C1264  1  0.77899000  0.91044900  0.44334900  1.0
  C  C1265  1  0.77899000  0.44334900  0.36721000  1.0
  C  C1266  1  0.77899000  0.36721000  0.44334900  1.0
  C  C1267  1  0.78061900  0.19184000  0.21434000  1.0
  C  C1268  1  0.78061900  0.31319900  0.21434000  1.0
  C  C1269  1  0.78062000  0.19184100  0.31319900  1.0
  C  C1270  1  0.78062000  0.21434000  0.19183900  1.0
  C  C1271  1  0.78062000  0.21434000  0.31319900  1.0
  C  C1272  1  0.78062000  0.31320100  0.19183900  1.0
  C  C1273  1  0.78313900  0.31358000  0.94134000  1.0
  C  C1274  1  0.78314000  0.94133900  0.31357900  1.0
  C  C1275  1  0.78314000  0.46193900  0.31357900  1.0
  C  C1276  1  0.78314000  0.46194000  0.94134000  1.0
  C  C1277  1  0.78314000  0.94133900  0.46194000  1.0
  C  C1278  1  0.78314000  0.31357900  0.46194000  1.0
  C  C1279  1  0.78550900  0.82920800  0.68959100  1.0
  C  C1280  1  0.78550900  0.19569100  0.82920900  1.0
  C  C1281  1  0.78550900  0.82920800  0.19569100  1.0
  C  C1282  1  0.78551000  0.68958900  0.82920900  1.0
  C  C1283  1  0.78551000  0.19569000  0.68959100  1.0
  C  C1284  1  0.78551000  0.68958900  0.19569100  1.0
  C  C1285  1  0.78565900  0.80816000  0.68680000  1.0
  C  C1286  1  0.78565900  0.68680000  0.80815900  1.0
  C  C1287  1  0.78566000  0.21937900  0.68680000  1.0
  C  C1288  1  0.78566000  0.21937900  0.80815900  1.0
  C  C1289  1  0.78566000  0.68679900  0.21938100  1.0
  C  C1290  1  0.78566000  0.80815900  0.21938100  1.0
  C  C1291  1  0.79027800  0.07912090  0.87983900  1.0
  C  C1292  1  0.79027900  0.87983900  0.75076000  1.0
  C  C1293  1  0.79027900  0.75075900  0.87983900  1.0
  C  C1294  1  0.79027900  0.87984000  0.07911930  1.0
  C  C1295  1  0.79028000  0.07911990  0.75076000  1.0
  C  C1296  1  0.79028000  0.75076000  0.07911930  1.0
  C  C1297  1  0.79373800  0.04792050  0.86460000  1.0
  C  C1298  1  0.79373800  0.79374000  0.86460000  1.0
  C  C1299  1  0.79373900  0.86460000  0.79373900  1.0
  C  C1300  1  0.79373900  0.86459900  0.04791990  1.0
  C  C1301  1  0.79374000  0.79373900  0.04791990  1.0
  C  C1302  1  0.79374000  0.04791950  0.79373900  1.0
  C  C1303  1  0.79912900  0.94186900  0.83955000  1.0
  C  C1304  1  0.79912900  0.83954900  0.94187000  1.0
  C  C1305  1  0.79913000  0.83955000  0.91944900  1.0
  C  C1306  1  0.79913000  0.91944900  0.83955000  1.0
  C  C1307  1  0.79913000  0.91944900  0.94187000  1.0
  C  C1308  1  0.79913100  0.94186900  0.91944900  1.0
  C  C1309  1  0.80368900  0.23696900  0.14831100  1.0
  C  C1310  1  0.80368900  0.14831000  0.23697000  1.0
  C  C1311  1  0.80369000  0.31102900  0.14831100  1.0
  C  C1312  1  0.80369000  0.31102900  0.23697000  1.0
  C  C1313  1  0.80369000  0.14830900  0.31103000  1.0
  C  C1314  1  0.80369000  0.23697000  0.31103000  1.0
  C  C1315  1  0.80407900  0.43692000  0.34770000  1.0
  C  C1316  1  0.80408000  0.34770000  0.43691900  1.0
  C  C1317  1  0.80408000  0.34769900  0.91130000  1.0
  C  C1318  1  0.80408000  0.91130000  0.34770000  1.0
  C  C1319  1  0.80408000  0.43691900  0.91130000  1.0
  C  C1320  1  0.80408100  0.91129900  0.43691900  1.0
  C  C1321  1  0.80430800  0.21449000  0.31041000  1.0
  C  C1322  1  0.80430900  0.17079000  0.21449100  1.0
  C  C1323  1  0.80430900  0.31041000  0.17079000  1.0
  C  C1324  1  0.80430900  0.31040900  0.21449100  1.0
  C  C1325  1  0.80430900  0.17079000  0.31041000  1.0
  C  C1326  1  0.80431000  0.21448900  0.17079000  1.0
  C  C1327  1  0.80620900  0.32079000  0.92543000  1.0
  C  C1328  1  0.80620900  0.44757000  0.92543000  1.0
  C  C1329  1  0.80620900  0.92542900  0.44757100  1.0
  C  C1330  1  0.80620900  0.32078900  0.44757100  1.0
  C  C1331  1  0.80620900  0.44757000  0.32079100  1.0
  C  C1332  1  0.80621000  0.92543000  0.32079100  1.0
  C  C1333  1  0.80816000  0.21938000  0.78566000  1.0
  C  C1334  1  0.80816000  0.68679900  0.78566000  1.0
  C  C1335  1  0.80816000  0.21937900  0.68680000  1.0
  C  C1336  1  0.80816000  0.78566000  0.21938100  1.0
  C  C1337  1  0.80816000  0.78566000  0.68680000  1.0
  C  C1338  1  0.80816000  0.68679900  0.21938100  1.0
  C  C1339  1  0.81015000  0.83266900  0.17721000  1.0
  C  C1340  1  0.81015000  0.17721000  0.67997000  1.0
  C  C1341  1  0.81015000  0.83266900  0.67997000  1.0
  C  C1342  1  0.81015000  0.17720900  0.83267000  1.0
  C  C1343  1  0.81015000  0.67997000  0.83267000  1.0
  C  C1344  1  0.81015100  0.67996900  0.17721000  1.0
  C  C1345  1  0.81613900  0.81614000  0.89069000  1.0
  C  C1346  1  0.81613900  0.81613900  0.97703000  1.0
  C  C1347  1  0.81614000  0.97703000  0.89069000  1.0
  C  C1348  1  0.81614000  0.89068900  0.97703000  1.0
  C  C1349  1  0.81614000  0.89069000  0.81613900  1.0
  C  C1350  1  0.81614000  0.97703000  0.81613900  1.0
  C  C1351  1  0.81679900  0.91166000  0.81679900  1.0
  C  C1352  1  0.81680000  0.81680000  0.91165900  1.0
  C  C1353  1  0.81680000  0.81680000  0.95473900  1.0
  C  C1354  1  0.81680000  0.95473900  0.81679900  1.0
  C  C1355  1  0.81680100  0.95473900  0.91165900  1.0
  C  C1356  1  0.81680100  0.91165900  0.95473900  1.0
  C  C1357  1  0.82278900  0.18985100  0.32003000  1.0
  C  C1358  1  0.82278900  0.16733000  0.32003000  1.0
  C  C1359  1  0.82278900  0.32002900  0.16733100  1.0
  C  C1360  1  0.82278900  0.32003100  0.18984900  1.0
  C  C1361  1  0.82279000  0.18984900  0.16733100  1.0
  C  C1362  1  0.82279000  0.16733000  0.18984900  1.0
  C  C1363  1  0.82791900  0.89268000  0.35350000  1.0
  C  C1364  1  0.82791900  0.42590000  0.35350000  1.0
  C  C1365  1  0.82792000  0.35350000  0.89267900  1.0
  C  C1366  1  0.82792000  0.35350100  0.42590000  1.0
  C  C1367  1  0.82792000  0.89267900  0.42590000  1.0
  C  C1368  1  0.82792000  0.42590100  0.89267900  1.0
  C  C1369  1  0.82920900  0.78551000  0.19569100  1.0
  C  C1370  1  0.82921000  0.19569000  0.68959100  1.0
  C  C1371  1  0.82921000  0.68958900  0.78551000  1.0
  C  C1372  1  0.82921000  0.68958900  0.19569100  1.0
  C  C1373  1  0.82921000  0.78550800  0.68959100  1.0
  C  C1374  1  0.82921000  0.19568900  0.78551000  1.0
  C  C1375  1  0.83266800  0.81015000  0.67997000  1.0
  C  C1376  1  0.83266900  0.17721000  0.67997000  1.0
  C  C1377  1  0.83266900  0.67997000  0.81014900  1.0
  C  C1378  1  0.83267000  0.17721000  0.81014900  1.0
  C  C1379  1  0.83267000  0.67996900  0.17721000  1.0
  C  C1380  1  0.83267100  0.81014900  0.17721000  1.0
  C  C1381  1  0.83954900  0.94187000  0.79913000  1.0
  C  C1382  1  0.83954900  0.79912900  0.94187000  1.0
  C  C1383  1  0.83955000  0.79913000  0.91944900  1.0
  C  C1384  1  0.83955000  0.91944900  0.94187000  1.0
  C  C1385  1  0.83955000  0.91945000  0.79913000  1.0
  C  C1386  1  0.83955100  0.94186900  0.91944900  1.0
  C  C1387  1  0.84150000  0.04790000  0.30530000  1.0
  C  C1388  1  0.84150000  0.30529900  0.04790040  1.0
  C  C1389  1  0.84150100  0.30529900  0.30530000  1.0
  C  C1390  1  0.85157900  0.33900100  0.00743930  1.0
  C  C1391  1  0.85157900  0.00743965  0.30198100  1.0
  C  C1392  1  0.85157900  0.33899900  0.30198100  1.0
  C  C1393  1  0.85157900  0.00744077  0.33900000  1.0
  C  C1394  1  0.85157900  0.30198000  0.00743930  1.0
  C  C1395  1  0.85157900  0.30198000  0.33900000  1.0
  C  C1396  1  0.85168900  0.19631000  0.68896900  1.0
  C  C1397  1  0.85168900  0.19631000  0.76303100  1.0
  C  C1398  1  0.85168900  0.68897000  0.76303100  1.0
  C  C1399  1  0.85168900  0.68896900  0.19631000  1.0
  C  C1400  1  0.85169000  0.76302900  0.68896900  1.0
  C  C1401  1  0.85169000  0.76302900  0.19631000  1.0
  C  C1402  1  0.85411000  0.31274900  0.02039040  1.0
  C  C1403  1  0.85411000  0.02038980  0.31274900  1.0
  C  C1404  1  0.85411000  0.31275000  0.31274900  1.0
  C  C1405  1  0.85640800  0.97961000  0.31329100  1.0
  C  C1406  1  0.85640900  0.31329000  0.97961000  1.0
  C  C1407  1  0.85640900  0.31329100  0.35069000  1.0
  C  C1408  1  0.85640900  0.35069000  0.97961000  1.0
  C  C1409  1  0.85640900  0.97960900  0.35069000  1.0
  C  C1410  1  0.85641000  0.35068900  0.31329100  1.0
  C  C1411  1  0.85791900  0.33816000  0.33816000  1.0
  C  C1412  1  0.85792000  0.96576000  0.33816000  1.0
  C  C1413  1  0.85792000  0.33816100  0.96575900  1.0
  C  C1414  1  0.86459900  0.79373900  0.04791990  1.0
  C  C1415  1  0.86459900  0.04791950  0.79373900  1.0
  C  C1416  1  0.86460100  0.79373900  0.79373900  1.0
  C  C1417  1  0.86507900  0.26664000  0.10164000  1.0
  C  C1418  1  0.86507900  0.26663900  0.26664000  1.0
  C  C1419  1  0.86507900  0.10164000  0.26664000  1.0
  C  C1420  1  0.87012900  0.34639100  0.93708900  1.0
  C  C1421  1  0.87012900  0.93708900  0.34639100  1.0
  C  C1422  1  0.87013000  0.34639000  0.34639100  1.0
  C  C1423  1  0.87678900  0.06751040  0.77784900  1.0
  C  C1424  1  0.87678900  0.77785000  0.06750920  1.0
  C  C1425  1  0.87679100  0.77784900  0.77784900  1.0
  C  C1426  1  0.87983900  0.07911990  0.75076000  1.0
  C  C1427  1  0.87983900  0.07911990  0.79027900  1.0
  C  C1428  1  0.87983900  0.79028000  0.75076000  1.0
  C  C1429  1  0.87983900  0.75076000  0.79027900  1.0
  C  C1430  1  0.87984000  0.79027900  0.07911930  1.0
  C  C1431  1  0.87984000  0.75076000  0.07911930  1.0
  C  C1432  1  0.88855900  0.73543900  0.10130100  1.0
  C  C1433  1  0.88856000  0.10129900  0.73543900  1.0
  C  C1434  1  0.88856000  0.73543900  0.77469900  1.0
  C  C1435  1  0.88856000  0.77470000  0.73543900  1.0
  C  C1436  1  0.88856000  0.77469900  0.10130100  1.0
  C  C1437  1  0.88856100  0.10129900  0.77469900  1.0
  C  C1438  1  0.88991900  0.25298100  0.10411900  1.0
  C  C1439  1  0.88992000  0.25297900  0.25297900  1.0
  C  C1440  1  0.88992000  0.10411900  0.25297900  1.0
  C  C1441  1  0.89068900  0.81613900  0.97703000  1.0
  C  C1442  1  0.89069000  0.97703000  0.81613900  1.0
  C  C1443  1  0.89069100  0.81614000  0.81613900  1.0
  C  C1444  1  0.89267900  0.42590000  0.82792000  1.0
  C  C1445  1  0.89267900  0.35350100  0.42590000  1.0
  C  C1446  1  0.89267900  0.42590000  0.35350000  1.0
  C  C1447  1  0.89267900  0.82791900  0.42590000  1.0
  C  C1448  1  0.89267900  0.35349900  0.82792000  1.0
  C  C1449  1  0.89267900  0.82792000  0.35350000  1.0
  C  C1450  1  0.89587900  0.74702000  0.74702000  1.0
  C  C1451  1  0.89588000  0.11007900  0.74702000  1.0
  C  C1452  1  0.89588000  0.74702000  0.11007900  1.0
  C  C1453  1  0.89836000  0.13491900  0.73335900  1.0
  C  C1454  1  0.89836000  0.73336000  0.73335900  1.0
  C  C1455  1  0.89836000  0.73336000  0.13491900  1.0
  C  C1456  1  0.89869900  0.11144000  0.22530000  1.0
  C  C1457  1  0.89869900  0.22530000  0.11143900  1.0
  C  C1458  1  0.89869900  0.11144000  0.26456000  1.0
  C  C1459  1  0.89870000  0.26456000  0.22530000  1.0
  C  C1460  1  0.89870000  0.22529900  0.26456000  1.0
  C  C1461  1  0.89870000  0.26456100  0.11143900  1.0
  C  C1462  1  0.90317900  0.64610000  0.71650000  1.0
  C  C1463  1  0.90317900  0.64610000  0.23422000  1.0
  C  C1464  1  0.90318000  0.23422000  0.71650000  1.0
  C  C1465  1  0.90318000  0.23422000  0.64609900  1.0
  C  C1466  1  0.90318000  0.71649900  0.64609900  1.0
  C  C1467  1  0.90318000  0.71649900  0.23422000  1.0
  C  C1468  1  0.91044900  0.77899000  0.36721000  1.0
  C  C1469  1  0.91044900  0.77899100  0.44334900  1.0
  C  C1470  1  0.91045000  0.44334900  0.36721000  1.0
  C  C1471  1  0.91045000  0.36721000  0.77898900  1.0
  C  C1472  1  0.91045000  0.44334900  0.77898900  1.0
  C  C1473  1  0.91045000  0.36721000  0.44334900  1.0
  C  C1474  1  0.91077900  0.27510000  0.69780000  1.0
  C  C1475  1  0.91077900  0.69779900  0.27510000  1.0
  C  C1476  1  0.91077900  0.27509900  0.61632000  1.0
  C  C1477  1  0.91077900  0.61632000  0.27510000  1.0
  C  C1478  1  0.91078000  0.61632000  0.69780000  1.0
  C  C1479  1  0.91078000  0.69780000  0.61632000  1.0
  C  C1480  1  0.91129900  0.34769900  0.80408000  1.0
  C  C1481  1  0.91129900  0.43692000  0.34770000  1.0
  C  C1482  1  0.91129900  0.80408000  0.34770000  1.0
  C  C1483  1  0.91130000  0.43691900  0.80408000  1.0
  C  C1484  1  0.91130000  0.34770000  0.43691900  1.0
  C  C1485  1  0.91130000  0.80407900  0.43691900  1.0
  C  C1486  1  0.91166000  0.81679900  0.81679900  1.0
  C  C1487  1  0.91166000  0.81680000  0.95473900  1.0
  C  C1488  1  0.91166100  0.95473900  0.81679900  1.0
  C  C1489  1  0.91499800  0.24922100  0.62114000  1.0
  C  C1490  1  0.91499900  0.62113900  0.24922000  1.0
  C  C1491  1  0.91500000  0.71464000  0.24922000  1.0
  C  C1492  1  0.91500000  0.24922100  0.71463900  1.0
  C  C1493  1  0.91500000  0.62114000  0.71463900  1.0
  C  C1494  1  0.91500000  0.71463900  0.62114000  1.0
  C  C1495  1  0.91944900  0.79913000  0.83955000  1.0
  C  C1496  1  0.91944900  0.94186900  0.83955000  1.0
  C  C1497  1  0.91944900  0.79912900  0.94187000  1.0
  C  C1498  1  0.91944900  0.83954900  0.94187000  1.0
  C  C1499  1  0.91944900  0.83954900  0.79913000  1.0
  C  C1500  1  0.91944900  0.94187000  0.79913000  1.0
  C  C1501  1  0.92088000  0.24924100  0.20971900  1.0
  C  C1502  1  0.92088000  0.12016000  0.24923900  1.0
  C  C1503  1  0.92088000  0.12016000  0.20971900  1.0
  C  C1504  1  0.92088000  0.20972000  0.12015900  1.0
  C  C1505  1  0.92088000  0.24924000  0.12015900  1.0
  C  C1506  1  0.92088100  0.20971900  0.24923900  1.0
  C  C1507  1  0.92118900  0.69729000  0.29037100  1.0
  C  C1508  1  0.92119000  0.29037100  0.69728900  1.0
  C  C1509  1  0.92119000  0.59114900  0.29037100  1.0
  C  C1510  1  0.92119000  0.59115000  0.69728900  1.0
  C  C1511  1  0.92119100  0.69729000  0.59114900  1.0
  C  C1512  1  0.92119100  0.29036900  0.59114900  1.0
  C  C1513  1  0.92542900  0.32078900  0.44757100  1.0
  C  C1514  1  0.92542900  0.44757000  0.80621000  1.0
  C  C1515  1  0.92542900  0.44757000  0.32079100  1.0
  C  C1516  1  0.92543000  0.32079000  0.80621000  1.0
  C  C1517  1  0.92543000  0.80620800  0.44757100  1.0
  C  C1518  1  0.92543000  0.80620900  0.32079100  1.0
  C  C1519  1  0.92734900  0.45633100  0.35958900  1.0
  C  C1520  1  0.92734900  0.35959000  0.45632900  1.0
  C  C1521  1  0.92734900  0.35958900  0.75672900  1.0
  C  C1522  1  0.92734900  0.75673000  0.35958900  1.0
  C  C1523  1  0.92734900  0.45633000  0.75672900  1.0
  C  C1524  1  0.92735000  0.75673000  0.45632900  1.0
  C  C1525  1  0.93248900  0.22215000  0.22215000  1.0
  C  C1526  1  0.93248900  0.12321000  0.22215000  1.0
  C  C1527  1  0.93248900  0.22215100  0.12320900  1.0
  C  C1528  1  0.93393900  0.60298000  0.72669900  1.0
  C  C1529  1  0.93393900  0.23638100  0.60297900  1.0
  C  C1530  1  0.93394000  0.23638000  0.72669900  1.0
  C  C1531  1  0.93394000  0.60297900  0.23638000  1.0
  C  C1532  1  0.93394000  0.72669900  0.60297900  1.0
  C  C1533  1  0.93394000  0.72670000  0.23638000  1.0
  C  C1534  1  0.93708900  0.34639000  0.34639100  1.0
  C  C1535  1  0.93708900  0.87012900  0.34639100  1.0
  C  C1536  1  0.93709000  0.34639000  0.87013000  1.0
  C  C1537  1  0.93791900  0.57186000  0.27857900  1.0
  C  C1538  1  0.93791900  0.27858000  0.57186000  1.0
  C  C1539  1  0.93792000  0.71163900  0.27857900  1.0
  C  C1540  1  0.93792000  0.27857900  0.71163900  1.0
  C  C1541  1  0.93792000  0.57185900  0.71163900  1.0
  C  C1542  1  0.93792000  0.71163900  0.57186000  1.0
  C  C1543  1  0.93798900  0.33209000  0.75983000  1.0
  C  C1544  1  0.93798900  0.47008900  0.33209100  1.0
  C  C1545  1  0.93798900  0.75983000  0.33209100  1.0
  C  C1546  1  0.93799000  0.33209000  0.47008900  1.0
  C  C1547  1  0.93799000  0.75982900  0.47008900  1.0
  C  C1548  1  0.93799000  0.47009000  0.75983000  1.0
  C  C1549  1  0.94133900  0.78313900  0.31357900  1.0
  C  C1550  1  0.94133900  0.31357900  0.78314000  1.0
  C  C1551  1  0.94133900  0.46194000  0.78314000  1.0
  C  C1552  1  0.94133900  0.78313900  0.46194000  1.0
  C  C1553  1  0.94134000  0.31357900  0.46194000  1.0
  C  C1554  1  0.94134100  0.46193900  0.31357900  1.0
  C  C1555  1  0.94186800  0.91945000  0.79913000  1.0
  C  C1556  1  0.94186900  0.83955000  0.91944900  1.0
  C  C1557  1  0.94186900  0.91944900  0.83955000  1.0
  C  C1558  1  0.94186900  0.79913000  0.91944900  1.0
  C  C1559  1  0.94186900  0.79913000  0.83955000  1.0
  C  C1560  1  0.94187000  0.83954900  0.79913000  1.0
  C  C1561  1  0.94554900  0.25128900  0.72529000  1.0
  C  C1562  1  0.94554900  0.57786900  0.72529000  1.0
  C  C1563  1  0.94554900  0.25129000  0.57787000  1.0
  C  C1564  1  0.94554900  0.72529000  0.57787000  1.0
  C  C1565  1  0.94555000  0.72528900  0.25128900  1.0
  C  C1566  1  0.94555000  0.57787000  0.25128900  1.0
  C  C1567  1  0.95207900  0.20626100  0.13540000  1.0
  C  C1568  1  0.95207900  0.13540000  0.20626000  1.0
  C  C1569  1  0.95207900  0.20626000  0.20626000  1.0
  C  C1570  1  0.95209900  0.15850000  0.69469900  1.0
  C  C1571  1  0.95210000  0.69470000  0.69469900  1.0
  C  C1572  1  0.95210000  0.69469900  0.15850000  1.0
  C  C1573  1  0.95422900  0.32264900  0.73919000  1.0
  C  C1574  1  0.95422900  0.48392900  0.73919000  1.0
  C  C1575  1  0.95422900  0.73919000  0.32265000  1.0
  C  C1576  1  0.95423000  0.48393000  0.32265000  1.0
  C  C1577  1  0.95423000  0.73918900  0.48392900  1.0
  C  C1578  1  0.95423100  0.32264900  0.48392900  1.0
  C  C1579  1  0.95429900  0.29076000  0.54760100  1.0
  C  C1580  1  0.95429900  0.70733900  0.54760100  1.0
  C  C1581  1  0.95429900  0.29076000  0.70734000  1.0
  C  C1582  1  0.95429900  0.54760000  0.29076000  1.0
  C  C1583  1  0.95429900  0.70734000  0.29076000  1.0
  C  C1584  1  0.95429900  0.54760000  0.70734000  1.0
  C  C1585  1  0.95473900  0.81679900  0.81679900  1.0
  C  C1586  1  0.95473900  0.81680000  0.91165900  1.0
  C  C1587  1  0.95473900  0.91166000  0.81679900  1.0
  C  C1588  1  0.96576000  0.33816000  0.85791900  1.0
  C  C1589  1  0.96576000  0.33816000  0.33816000  1.0
  C  C1590  1  0.96576000  0.85791900  0.33816000  1.0
  C  C1591  1  0.97446000  0.58160000  0.60419900  1.0
  C  C1592  1  0.97446000  0.33973900  0.60419900  1.0
  C  C1593  1  0.97446000  0.58160000  0.33974100  1.0
  C  C1594  1  0.97446000  0.60419900  0.33974100  1.0
  C  C1595  1  0.97446000  0.60420000  0.58159900  1.0
  C  C1596  1  0.97446000  0.33974100  0.58159900  1.0
  C  C1597  1  0.97702900  0.81614000  0.89069000  1.0
  C  C1598  1  0.97702900  0.89069000  0.81613900  1.0
  C  C1599  1  0.97703100  0.81614000  0.81613900  1.0
  C  C1600  1  0.97875900  0.43969900  0.66492000  1.0
  C  C1601  1  0.97875900  0.66491800  0.43970000  1.0
  C  C1602  1  0.97876000  0.41662000  0.66492000  1.0
  C  C1603  1  0.97876000  0.66492000  0.41662100  1.0
  C  C1604  1  0.97876000  0.41661900  0.43970000  1.0
  C  C1605  1  0.97876000  0.43970000  0.41662100  1.0
  C  C1606  1  0.97960900  0.31329100  0.35069000  1.0
  C  C1607  1  0.97961000  0.14589000  0.68725000  1.0
  C  C1608  1  0.97961000  0.35068900  0.31329100  1.0
  C  C1609  1  0.97961000  0.35069000  0.85640900  1.0
  C  C1610  1  0.97961000  0.68725000  0.14589000  1.0
  C  C1611  1  0.97961000  0.85640900  0.31329100  1.0
  C  C1612  1  0.97961000  0.85640900  0.35069000  1.0
  C  C1613  1  0.97961000  0.68725000  0.68725000  1.0
  C  C1614  1  0.97961000  0.31329100  0.85640900  1.0
  C  C1615  1  0.99255800  0.14842100  0.69802000  1.0
  C  C1616  1  0.99255900  0.69802000  0.14842000  1.0
  C  C1617  1  0.99256000  0.66099900  0.69802000  1.0
  C  C1618  1  0.99256000  0.66099900  0.14842000  1.0
  C  C1619  1  0.99256000  0.14842000  0.66099900  1.0
  C  C1620  1  0.99256100  0.69801900  0.66099900  1.0
  C  C1621  1  0.99647800  0.60388000  0.55834000  1.0
  C  C1622  1  0.99647900  0.55834000  0.34130000  1.0
  C  C1623  1  0.99647900  0.55833900  0.60388000  1.0
  C  C1624  1  0.99648000  0.34129900  0.60388000  1.0
  C  C1625  1  0.99648000  0.34130000  0.55834000  1.0
  C  C1626  1  0.99648000  0.60388000  0.34130000  1.0
  C  C1627  1  0.99651900  0.62608000  0.53435900  1.0
  C  C1628  1  0.99651900  0.53435900  0.34304000  1.0
  C  C1629  1  0.99651900  0.34304000  0.53435900  1.0
  C  C1630  1  0.99652000  0.62608000  0.34304000  1.0
  C  C1631  1  0.99652000  0.53435900  0.62607900  1.0
  C  C1632  1  0.99652100  0.34303900  0.62607900  1.0
  S  S1  1  0.02501536  0.84125412  0.27382786  1.0
  S  S2  1  0.02508384  0.35952723  0.27330822  1.0
  S  S3  1  0.02508386  0.27330765  0.84208066  1.0
  S  S4  1  0.03024924  0.76464244  0.44590335  1.0
  S  S5  1  0.03024939  0.44590219  0.25920523  1.0
  S  S6  1  0.03024993  0.25920429  0.76464086  1.0
  S  S7  1  0.03028437  0.44591515  0.76463486  1.0
  S  S8  1  0.03028519  0.76463279  0.25916264  1.0
  S  S9  1  0.03028770  0.25915853  0.44591529  1.0
  S  S10  1  0.03514678  0.21509820  0.53107924  1.0
  S  S11  1  0.03514839  0.71867477  0.21509634  1.0
  S  S12  1  0.03514956  0.53107934  0.71867633  1.0
  S  S13  1  0.03518320  0.53103382  0.21509028  1.0
  S  S14  1  0.03518472  0.21508821  0.71869211  1.0
  S  S15  1  0.03518834  0.71869428  0.53103387  1.0
  S  S16  1  0.03672917  0.70590404  0.13957804  1.0
  S  S17  1  0.03673060  0.61779033  0.70590514  1.0
  S  S18  1  0.03673922  0.13952357  0.70592419  1.0
  S  S19  1  0.04693066  0.13288538  0.22230669  1.0
  S  S20  1  0.04693284  0.09787622  0.13288425  1.0
  S  S21  1  0.04696347  0.13285990  0.09790458  1.0
  S  S22  1  0.05111519  0.32758681  0.53417746  1.0
  S  S23  1  0.05112170  0.53419701  0.32755082  1.0
  S  S24  1  0.05112198  0.58713366  0.53419809  1.0
  S  S25  1  0.05375914  0.66238647  0.41708070  1.0
  S  S26  1  0.05380725  0.36681219  0.66228989  1.0
  S  S27  1  0.05394810  0.36692227  0.41722354  1.0
  S  S28  1  0.06643704  0.87298046  0.82501212  1.0
  S  S29  1  0.06646749  0.82501822  0.87293456  1.0
  S  S30  1  0.06646915  0.73557744  0.82501838  1.0
  S  S31  1  0.10989603  0.88241003  0.29815768  1.0
  S  S32  1  0.10994385  0.29814353  0.88237889  1.0
  S  S33  1  0.10994410  0.20953162  0.29814346  1.0
  S  S34  1  0.13322254  0.22198834  0.04636814  1.0
  S  S35  1  0.13322327  0.04636675  0.09841956  1.0
  S  S36  1  0.13324483  0.04633726  0.22202390  1.0
  S  S37  1  0.13588322  0.18695464  0.33180861  1.0
  S  S38  1  0.13588472  0.33180982  0.84535240  1.0
  S  S39  1  0.13588793  0.84535513  0.18694658  1.0
  S  S40  1  0.13589095  0.18696096  0.84538795  1.0
  S  S41  1  0.13589186  0.84538795  0.33176191  1.0
  S  S42  1  0.13589257  0.33176709  0.18695300  1.0
  S  S43  1  0.13952334  0.61781270  0.70592382  1.0
  S  S44  1  0.13952480  0.70592337  0.03673918  1.0
  S  S45  1  0.13957449  0.03673024  0.70590489  1.0
  S  S46  1  0.15494657  0.81215925  0.66841335  1.0
  S  S47  1  0.15498047  0.81216157  0.86448713  1.0
  S  S48  1  0.15498105  0.66836916  0.81216005  1.0
  S  S49  1  0.16235902  0.55677863  0.07645730  1.0
  S  S50  1  0.16235949  0.07641653  0.55682203  1.0
  S  S51  1  0.16236024  0.70440460  0.55678009  1.0
  S  S52  1  0.16236075  0.70440107  0.07641878  1.0
  S  S53  1  0.16236108  0.55681840  0.70440159  1.0
  S  S54  1  0.16236124  0.07645431  0.70440465  1.0
  S  S55  1  0.17498072  0.12706479  0.26442153  1.0
  S  S56  1  0.17498084  0.93353192  0.12706312  1.0
  S  S57  1  0.17498158  0.26442363  0.93352832  1.0
  S  S58  1  0.17498718  0.26443331  0.12701562  1.0
  S  S59  1  0.17498727  0.12701793  0.93355910  1.0
  S  S60  1  0.17498802  0.93356000  0.26443283  1.0
  S  S61  1  0.20170442  0.61158712  0.94317857  1.0
  S  S62  1  0.20170500  0.74353121  0.61157395  1.0
  S  S63  1  0.20171132  0.61156597  0.74357258  1.0
  S  S64  1  0.20171184  0.74357075  0.94313906  1.0
  S  S65  1  0.20171294  0.94314242  0.61156543  1.0
  S  S66  1  0.21159815  0.92463602  0.75722186  1.0
  S  S67  1  0.25650778  0.79830466  0.38809255  1.0
  S  S68  1  0.25650859  0.05709464  0.79830381  1.0
  S  S69  1  0.25650973  0.38809062  0.05709392  1.0
  S  S70  1  0.25654717  0.79831070  0.05705764  1.0
  S  S71  1  0.25655093  0.38807583  0.79831137  1.0
  S  S72  1  0.25655901  0.05708346  0.38804260  1.0
  S  S73  1  0.27327736  0.02507586  0.84212951  1.0
  S  S74  1  0.27327739  0.84212946  0.35951622  1.0
  S  S75  1  0.27327906  0.35951790  0.02507566  1.0
  S  S76  1  0.27330475  0.35952909  0.84208409  1.0
  S  S77  1  0.27330602  0.84208173  0.02508325  1.0
  S  S78  1  0.27330707  0.02508708  0.35952648  1.0
  S  S79  1  0.28018519  0.96013039  0.47516265  1.0
  S  S80  1  0.28164378  0.78363737  0.46957735  1.0
  S  S81  1  0.28164418  0.46957754  0.96514339  1.0
  S  S82  1  0.28164456  0.96514330  0.78363486  1.0
  S  S83  1  0.28165926  0.46953398  0.78362911  1.0
  S  S84  1  0.28166028  0.78362721  0.96517929  1.0
  S  S85  1  0.31665146  0.24187537  0.75107553  1.0
  S  S86  1  0.31665608  0.19039415  0.24187450  1.0
  S  S87  1  0.31670196  0.75106477  0.24185634  1.0
  S  S88  1  0.32754593  0.05112113  0.53419778  1.0
  S  S89  1  0.32754768  0.53419659  0.58713157  1.0
  S  S90  1  0.32759876  0.53417355  0.05111750  1.0
  S  S91  1  0.35757100  0.32303243  0.10791269  1.0
  S  S92  1  0.35757294  0.71147990  0.32302630  1.0
  S  S93  1  0.35757668  0.10791001  0.71147625  1.0
  S  S94  1  0.35758279  0.71146513  0.10795511  1.0
  S  S95  1  0.35758864  0.10795629  0.32299622  1.0
  S  S96  1  0.35791418  0.32319190  0.71102003  1.0
  S  S97  1  0.36681196  0.66229215  0.05380590  1.0
  S  S98  1  0.36681212  0.41708962  0.66228965  1.0
  S  S99  1  0.36681319  0.05380651  0.41709153  1.0
  S  S100  1  0.36682681  0.66223789  0.41710815  1.0
  S  S101  1  0.36682813  0.41710603  0.05382586  1.0
  S  S102  1  0.36758632  0.05431642  0.66320175  1.0
  S  S103  1  0.43545042  0.77522385  0.88889127  1.0
  S  S104  1  0.43545045  0.88888885  0.40043178  1.0
  S  S105  1  0.43545732  0.40043095  0.77522475  1.0
  S  S106  1  0.43549354  0.40041854  0.88885448  1.0
  S  S107  1  0.43549675  0.88885359  0.77522782  1.0
  S  S108  1  0.43549846  0.77522942  0.40041921  1.0
  S  S109  1  0.53103266  0.71869160  0.21508807  1.0
  S  S110  1  0.53103347  0.21508622  0.03518641  1.0
  S  S111  1  0.53103536  0.03518493  0.71869240  1.0
  S  S112  1  0.53107735  0.21509582  0.71867637  1.0
  S  S113  1  0.53107760  0.03514750  0.21509727  1.0
  S  S114  1  0.53108236  0.71867515  0.03514896  1.0
  S  S115  1  0.53474056  0.32745890  0.05167398  1.0
  S  S116  1  0.53474098  0.58612187  0.32746132  1.0
  S  S117  1  0.53474327  0.05167492  0.58612480  1.0
  S  S118  1  0.53476274  0.05167918  0.32741207  1.0
  S  S119  1  0.53476309  0.32741062  0.58614652  1.0
  S  S120  1  0.53476316  0.58614610  0.05167902  1.0
  S  S121  1  0.55380454  0.23547965  0.96872215  1.0
  S  S122  1  0.55405527  0.74080797  0.96973142  1.0
  S  S123  1  0.55408162  0.23536357  0.74084164  1.0
  S  S124  1  0.55408316  0.96971109  0.23536287  1.0
  S  S125  1  0.55409640  0.74079368  0.23535602  1.0
  S  S126  1  0.55409911  0.96974857  0.74079807  1.0
  S  S127  1  0.59977162  0.11142018  0.22389092  1.0
  S  S128  1  0.59977252  0.56491687  0.11142189  1.0
  S  S129  1  0.59977276  0.22388953  0.56491797  1.0
  S  S130  1  0.59978532  0.56487003  0.22388768  1.0
  S  S131  1  0.59978568  0.22388323  0.11145713  1.0
  S  S132  1  0.60607885  0.07883647  0.58299470  1.0
  S  S133  1  0.61781895  0.70501731  0.13942495  1.0
  S  S134  1  0.61781918  0.03773837  0.70501742  1.0
  S  S135  1  0.61784161  0.70503584  0.03774754  1.0
  S  S136  1  0.61784219  0.03774726  0.13937532  1.0
  S  S137  1  0.61784298  0.13937036  0.70503693  1.0
  S  S138  1  0.62214959  0.13173225  0.03821593  1.0
  S  S139  1  0.66223448  0.36682927  0.05382737  1.0
  S  S140  1  0.66223569  0.05382698  0.41710715  1.0
  S  S141  1  0.66228875  0.36681273  0.41709217  1.0
  S  S142  1  0.66836839  0.81216149  0.15498187  1.0
  S  S143  1  0.66836920  0.15497996  0.86448688  1.0
  S  S144  1  0.66841204  0.81215528  0.86448123  1.0
  S  S145  1  0.67537036  0.32143847  0.41645756  1.0
  S  S146  1  0.67537310  0.41644680  0.08673260  1.0
  S  S147  1  0.67538114  0.08669115  0.41644594  1.0
  S  S148  1  0.67538376  0.41643565  0.32148708  1.0
  S  S149  1  0.67541287  0.08681935  0.32158842  1.0
  S  S150  1  0.67541601  0.32160130  0.08678989  1.0
  S  S151  1  0.67864929  0.32464689  0.91385502  1.0
  S  S152  1  0.67876882  0.91379976  0.32467785  1.0
  S  S153  1  0.67876912  0.58274997  0.91380204  1.0
  S  S154  1  0.67877079  0.32467602  0.58274784  1.0
  S  S155  1  0.67880965  0.58273983  0.32468842  1.0
  S  S156  1  0.67881202  0.91376018  0.58273805  1.0
  S  S157  1  0.70184248  0.79046197  0.11759542  1.0
  S  S158  1  0.70184340  0.11759187  0.89009830  1.0
  S  S159  1  0.70184446  0.89009811  0.79046457  1.0
  S  S160  1  0.70185655  0.89005155  0.11762599  1.0
  S  S161  1  0.70185687  0.11762098  0.79046636  1.0
  S  S162  1  0.70185858  0.79046839  0.89005032  1.0
  S  S163  1  0.72536939  0.93326199  0.38461794  1.0
  S  S164  1  0.72540858  0.45538026  0.38416289  1.0
  S  S165  1  0.72540880  0.93505063  0.45537403  1.0
  S  S166  1  0.72541032  0.38416422  0.93505045  1.0
  S  S167  1  0.72541674  0.45533037  0.93509050  1.0
  S  S168  1  0.72541709  0.38415966  0.45533186  1.0
  S  S169  1  0.75143499  0.31665794  0.24221111  1.0
  S  S170  1  0.75143600  0.18969368  0.31665950  1.0
  S  S171  1  0.75144692  0.18970936  0.24223054  1.0
  S  S172  1  0.75812273  0.80960937  0.68334398  1.0
  S  S173  1  0.75812311  0.24892206  0.80960433  1.0
  S  S174  1  0.75812476  0.68334408  0.24892517  1.0
  S  S175  1  0.75814221  0.68329740  0.80962357  1.0
  S  S176  1  0.75814335  0.24893326  0.68329341  1.0
  S  S177  1  0.75814490  0.80962488  0.24893685  1.0
  S  S178  1  0.77797119  0.95366194  0.86675462  1.0
  S  S179  1  0.77797251  0.90160805  0.95366545  1.0
  S  S180  1  0.77800619  0.86677302  0.95363732  1.0
  S  S181  1  0.84207993  0.02508411  0.27330808  1.0
  S  S182  1  0.84207995  0.27330704  0.35952708  1.0
  S  S183  1  0.84212802  0.27327828  0.02507508  1.0
  S  S184  1  0.87293784  0.73557566  0.06646694  1.0
  S  S185  1  0.87297880  0.73556684  0.82501227  1.0
  S  S186  1  0.87298100  0.06643839  0.73556653  1.0
  S  S187  1  0.87876887  0.36361191  0.46273828  1.0
  S  S188  1  0.88237671  0.20953202  0.10994652  1.0
  S  S189  1  0.88240563  0.10990150  0.20953551  1.0
  S  S190  1  0.88240858  0.20953453  0.29815718  1.0
  S  S191  1  0.88885107  0.77523307  0.43549619  1.0
  S  S192  1  0.88885688  0.43549225  0.40042055  1.0
  S  S193  1  0.88885728  0.40042074  0.77522775  1.0
  S  S194  1  0.88888959  0.77522620  0.40043210  1.0
  S  S195  1  0.88889128  0.43544973  0.77522460  1.0
  S  S196  1  0.89204262  0.28854846  0.64240657  1.0
  S  S197  1  0.89204269  0.67700399  0.28853200  1.0
  S  S198  1  0.89204358  0.64241056  0.67700186  1.0
  S  S199  1  0.89208374  0.28852835  0.67696677  1.0
  S  S200  1  0.89208398  0.64242739  0.28851842  1.0
  S  S201  1  0.89208576  0.67696558  0.64241954  1.0
  S  S202  1  0.90209252  0.77773003  0.86713910  1.0
  S  S203  1  0.90212084  0.95306578  0.86711717  1.0
  S  S204  1  0.90212268  0.77769083  0.95306887  1.0
  O  O1  1  0.00000000  0.31623000  0.50000000  1.0
  O  O2  1  0.00000000  0.50000000  0.31623000  1.0
  O  O3  1  0.00000000  0.31623000  0.68376900  1.0
  O  O4  1  0.00000000  0.68376900  0.50000000  1.0
  O  O5  1  0.00000000  0.68377000  0.31623000  1.0
  O  O6  1  0.00000000  0.50000100  0.68376900  1.0
  O  O7  1  0.00168903  0.85549884  0.26116368  1.0
  O  O8  1  0.00515399  0.44257502  0.77611350  1.0
  O  O9  1  0.00515438  0.77611247  0.27615329  1.0
  O  O10  1  0.00515637  0.27614862  0.44257686  1.0
  O  O11  1  0.00643155  0.38786037  0.27802701  1.0
  O  O12  1  0.00643192  0.27802533  0.82768124  1.0
  O  O13  1  0.00915558  0.75374029  0.46078821  1.0
  O  O14  1  0.00915590  0.27631635  0.75373932  1.0
  O  O15  1  0.00915602  0.46078604  0.27631721  1.0
  O  O16  1  0.01138897  0.55328429  0.21525597  1.0
  O  O17  1  0.01139097  0.21525209  0.72007103  1.0
  O  O18  1  0.01139358  0.72007575  0.55328358  1.0
  O  O19  1  0.01139556  0.23738075  0.53467990  1.0
  O  O20  1  0.01139632  0.71654406  0.23737804  1.0
  O  O21  1  0.01139702  0.53468006  0.71654677  1.0
  O  O22  1  0.01242428  0.72420869  0.15735149  1.0
  O  O23  1  0.01242682  0.60601557  0.72421095  1.0
  O  O24  1  0.01253070  0.82915600  0.82915600  1.0
  O  O25  1  0.01693920  0.52218000  0.63184000  1.0
  O  O26  1  0.01693950  0.63183900  0.52218000  1.0
  O  O27  1  0.01693990  0.32904000  0.52218000  1.0
  O  O28  1  0.01693990  0.63183900  0.32904100  1.0
  O  O29  1  0.01694000  0.52217900  0.32904100  1.0
  O  O30  1  0.01694030  0.32903900  0.63184000  1.0
  O  O31  1  0.01742496  0.12792254  0.73543157  1.0
  O  O32  1  0.01850940  0.12077100  0.19886900  1.0
  O  O33  1  0.01850960  0.19887000  0.12076900  1.0
  O  O34  1  0.01851040  0.19887000  0.16185000  1.0
  O  O35  1  0.01851060  0.16185000  0.19886900  1.0
  O  O36  1  0.01851060  0.12076900  0.16185000  1.0
  O  O37  1  0.01851100  0.16185000  0.12076900  1.0
  O  O38  1  0.01856375  0.14244579  0.23332502  1.0
  O  O39  1  0.01856594  0.10566492  0.14244330  1.0
  O  O40  1  0.01877596  0.79401096  0.42632498  1.0
  O  O41  1  0.01877640  0.42632355  0.26088841  1.0
  O  O42  1  0.01877753  0.26088575  0.79400996  1.0
  O  O43  1  0.02275433  0.36185529  0.25037066  1.0
  O  O44  1  0.02275445  0.25037044  0.86502009  1.0
  O  O45  1  0.02470960  0.46913000  0.65080900  1.0
  O  O46  1  0.02471000  0.65080900  0.46913000  1.0
  O  O47  1  0.02471050  0.35535000  0.65080900  1.0
  O  O48  1  0.02471050  0.35534900  0.46913000  1.0
  O  O49  1  0.02471060  0.46912900  0.35535000  1.0
  O  O50  1  0.02471100  0.65080900  0.35535000  1.0
  O  O51  1  0.02783910  0.46540000  0.28166100  1.0
  O  O52  1  0.02783930  0.28166000  0.46540000  1.0
  O  O53  1  0.02783990  0.72509900  0.28166100  1.0
  O  O54  1  0.02784010  0.72509900  0.46540000  1.0
  O  O55  1  0.02784050  0.46539900  0.72509900  1.0
  O  O56  1  0.02784050  0.28165900  0.72509900  1.0
  O  O57  1  0.02859467  0.18945006  0.55615452  1.0
  O  O58  1  0.02859774  0.72579895  0.18944757  1.0
  O  O59  1  0.02859926  0.55615463  0.72580021  1.0
  O  O60  1  0.03027900  0.51478000  0.25424000  1.0
  O  O61  1  0.03027910  0.25424000  0.70070000  1.0
  O  O62  1  0.03027950  0.70069900  0.25424000  1.0
  O  O63  1  0.03027970  0.25423900  0.51478000  1.0
  O  O64  1  0.03028020  0.70070000  0.51478000  1.0
  O  O65  1  0.03028020  0.51477900  0.70070000  1.0
  O  O66  1  0.03068780  0.81349259  0.28201479  1.0
  O  O67  1  0.03150572  0.13505467  0.08541196  1.0
  O  O68  1  0.03383680  0.16482120  0.70378221  1.0
  O  O69  1  0.03459487  0.47088957  0.74811655  1.0
  O  O70  1  0.03459649  0.74811251  0.24639775  1.0
  O  O71  1  0.03459938  0.24639054  0.47088925  1.0
  O  O72  1  0.03601819  0.50436061  0.23202052  1.0
  O  O73  1  0.03601858  0.23201883  0.72760050  1.0
  O  O74  1  0.03602363  0.72760408  0.50436021  1.0
  O  O75  1  0.03780900  0.78447000  0.86079000  1.0
  O  O76  1  0.03780920  0.81693000  0.86079000  1.0
  O  O77  1  0.03780960  0.86078900  0.78446900  1.0
  O  O78  1  0.03780990  0.86078900  0.81693000  1.0
  O  O79  1  0.03781080  0.81692900  0.78446900  1.0
  O  O80  1  0.03781090  0.78446900  0.81693000  1.0
  O  O81  1  0.03802930  0.88299066  0.83328781  1.0
  O  O82  1  0.03872298  0.12735113  0.12581928  1.0
  O  O83  1  0.03991215  0.34451297  0.50949948  1.0
  O  O84  1  0.04022049  0.43483848  0.78926987  1.0
  O  O85  1  0.04022154  0.78926717  0.23566677  1.0
  O  O86  1  0.04022630  0.23566551  0.43483566  1.0
  O  O87  1  0.04086960  0.66161000  0.51355000  1.0
  O  O88  1  0.04086970  0.51355000  0.28397000  1.0
  O  O89  1  0.04086970  0.66160900  0.28397000  1.0
  O  O90  1  0.04086980  0.51355000  0.66160900  1.0
  O  O91  1  0.04086980  0.28397100  0.51355000  1.0
  O  O92  1  0.04087000  0.28397000  0.66160900  1.0
  O  O93  1  0.04250684  0.61923139  0.52266977  1.0
  O  O94  1  0.04250915  0.52266791  0.31559494  1.0
  O  O95  1  0.04264338  0.72355387  0.11297966  1.0
  O  O96  1  0.04264369  0.62082764  0.72355380  1.0
  O  O97  1  0.04294279  0.45758549  0.23171261  1.0
  O  O98  1  0.04294388  0.76775810  0.45758559  1.0
  O  O99  1  0.04294414  0.23171203  0.76775522  1.0
  O  O100  1  0.04436611  0.85430003  0.25554102  1.0
  O  O101  1  0.04500945  0.67993952  0.43077220  1.0
  O  O102  1  0.04511896  0.34427836  0.67983390  1.0
  O  O103  1  0.04795693  0.20729533  0.50825745  1.0
  O  O104  1  0.04795901  0.73648884  0.20729354  1.0
  O  O105  1  0.04796101  0.50825755  0.73648978  1.0
  O  O106  1  0.04934959  0.53059775  0.18493183  1.0
  O  O107  1  0.04935171  0.83085305  0.89691284  1.0
  O  O108  1  0.04935325  0.18493003  0.73511885  1.0
  O  O109  1  0.04935354  0.72287943  0.83085421  1.0
  O  O110  1  0.04936007  0.73511668  0.53059882  1.0
  O  O111  1  0.04975936  0.35292755  0.27572319  1.0
  O  O112  1  0.04975937  0.27572260  0.82158981  1.0
  O  O113  1  0.05077950  0.46250000  0.68305900  1.0
  O  O114  1  0.05077990  0.46250100  0.30365900  1.0
  O  O115  1  0.05078000  0.30366000  0.68305900  1.0
  O  O116  1  0.05078000  0.68305900  0.46250000  1.0
  O  O117  1  0.05078030  0.30365900  0.46250000  1.0
  O  O118  1  0.05078090  0.68305900  0.30365900  1.0
  O  O119  1  0.05304997  0.35258216  0.40559911  1.0
  O  O120  1  0.05520575  0.51377848  0.35146880  1.0
  O  O121  1  0.05520895  0.57954970  0.51377858  1.0
  O  O122  1  0.05565089  0.68900535  0.15327196  1.0
  O  O123  1  0.05565343  0.60207237  0.68900761  1.0
  O  O124  1  0.05645900  0.28744100  0.83077900  1.0
  O  O125  1  0.05645920  0.83078000  0.28743900  1.0
  O  O126  1  0.05645920  0.28744100  0.32532000  1.0
  O  O127  1  0.05645950  0.32532100  0.28743900  1.0
  O  O128  1  0.05645970  0.83077900  0.32532000  1.0
  O  O129  1  0.05645980  0.32532000  0.83077900  1.0
  O  O130  1  0.05795893  0.12238925  0.24600266  1.0
  O  O131  1  0.05796166  0.07364800  0.12238807  1.0
  O  O132  1  0.05902458  0.35517913  0.44167852  1.0
  O  O133  1  0.05963233  0.83779616  0.84934171  1.0
  O  O134  1  0.05963410  0.75322799  0.83779573  1.0
  O  O135  1  0.05976773  0.30046539  0.53700142  1.0
  O  O136  1  0.06143723  0.11264709  0.21056570  1.0
  O  O137  1  0.06144011  0.11534850  0.11264666  1.0
  O  O138  1  0.06158304  0.11835930  0.70231933  1.0
  O  O139  1  0.06461237  0.67849183  0.38571658  1.0
  O  O140  1  0.06469827  0.37121246  0.67836558  1.0
  O  O141  1  0.06783584  0.34014059  0.52984725  1.0
  O  O142  1  0.07090803  0.57778874  0.54548237  1.0
  O  O143  1  0.07090926  0.54548009  0.30582701  1.0
  O  O144  1  0.07338275  0.36850461  0.63664012  1.0
  O  O145  1  0.07338821  0.63676985  0.42144170  1.0
  O  O146  1  0.07495394  0.10966742  0.09063606  1.0
  O  O147  1  0.07516112  0.89298446  0.82632243  1.0
  O  O148  1  0.07594910  0.66517000  0.63161000  1.0
  O  O149  1  0.07594940  0.63161000  0.66517000  1.0
  O  O150  1  0.07594960  0.63161000  0.12726900  1.0
  O  O151  1  0.07594960  0.12726900  0.63161000  1.0
  O  O152  1  0.07595000  0.66517000  0.12726900  1.0
  O  O153  1  0.07595030  0.12726900  0.66517000  1.0
  O  O154  1  0.07653217  0.38045739  0.39499537  1.0
  O  O155  1  0.08143957  0.84692853  0.83754937  1.0
  O  O156  1  0.08583191  0.31431707  0.89606141  1.0
  O  O157  1  0.08583216  0.20378751  0.31431715  1.0
  O  O158  1  0.08605958  0.87573763  0.31356990  1.0
  O  O159  1  0.08893880  0.78960000  0.34930000  1.0
  O  O160  1  0.08893960  0.34930000  0.78959900  1.0
  O  O161  1  0.08893970  0.27216000  0.34930000  1.0
  O  O162  1  0.08893980  0.27216000  0.78959900  1.0
  O  O163  1  0.08893990  0.34930000  0.27215900  1.0
  O  O164  1  0.08894030  0.78959900  0.27215900  1.0
  O  O165  1  0.09337039  0.83012095  0.86462291  1.0
  O  O166  1  0.09337250  0.71188402  0.83012059  1.0
  O  O167  1  0.09668970  0.25551100  0.29156900  1.0
  O  O168  1  0.09668990  0.25551100  0.85622900  1.0
  O  O169  1  0.09669010  0.29157000  0.85622900  1.0
  O  O170  1  0.09669030  0.85623000  0.29156900  1.0
  O  O171  1  0.09669050  0.29156900  0.25550900  1.0
  O  O172  1  0.09669100  0.85622900  0.25550900  1.0
  O  O173  1  0.10383900  0.15032000  0.66354000  1.0
  O  O174  1  0.10383900  0.66354000  0.58230000  1.0
  O  O175  1  0.10384000  0.58230100  0.15032000  1.0
  O  O176  1  0.10384000  0.15032100  0.58230000  1.0
  O  O177  1  0.10384000  0.66353900  0.15032000  1.0
  O  O178  1  0.10384000  0.58229900  0.66354000  1.0
  O  O179  1  0.10405000  0.29603000  0.29603100  1.0
  O  O180  1  0.10405000  0.80388900  0.29603100  1.0
  O  O181  1  0.10405000  0.29602900  0.80388900  1.0
  O  O182  1  0.10493453  0.90703732  0.30499513  1.0
  O  O183  1  0.10916275  0.22223117  0.06865898  1.0
  O  O184  1  0.10916300  0.06865702  0.09994613  1.0
  O  O185  1  0.11297565  0.04264370  0.72355392  1.0
  O  O186  1  0.11525900  0.75520000  0.33722100  1.0
  O  O187  1  0.11525900  0.29232000  0.75519900  1.0
  O  O188  1  0.11525900  0.29232000  0.33722100  1.0
  O  O189  1  0.11525900  0.75520100  0.29232000  1.0
  O  O190  1  0.11526000  0.33722000  0.29232000  1.0
  O  O191  1  0.11526000  0.33722000  0.75519900  1.0
  O  O192  1  0.11620937  0.05557663  0.20779445  1.0
  O  O193  1  0.11685029  0.20407507  0.34727265  1.0
  O  O194  1  0.11685153  0.34727394  0.83180115  1.0
  O  O195  1  0.11685232  0.83180666  0.20406497  1.0
  O  O196  1  0.11835975  0.61773804  0.70231784  1.0
  O  O197  1  0.11836108  0.70231819  0.06158343  1.0
  O  O198  1  0.11945588  0.30369544  0.85431184  1.0
  O  O199  1  0.11945631  0.22253465  0.30369526  1.0
  O  O200  1  0.12076900  0.01851030  0.19886900  1.0
  O  O201  1  0.12076900  0.19887100  0.01850960  1.0
  O  O202  1  0.12077000  0.19887000  0.16185000  1.0
  O  O203  1  0.12077100  0.16185000  0.19886900  1.0
  O  O204  1  0.12077100  0.01850920  0.16185000  1.0
  O  O205  1  0.12077100  0.16185000  0.01850960  1.0
  O  O206  1  0.12130372  0.31456963  0.20851936  1.0
  O  O207  1  0.12130593  0.85560573  0.31456236  1.0
  O  O208  1  0.12130683  0.20852940  0.85560452  1.0
  O  O209  1  0.12367000  0.62633000  0.62633000  1.0
  O  O210  1  0.12367000  0.12367100  0.62633000  1.0
  O  O211  1  0.12367100  0.62633000  0.12366900  1.0
  O  O212  1  0.12425046  0.04850065  0.24745340  1.0
  O  O213  1  0.12511900  0.57865900  0.17238100  1.0
  O  O214  1  0.12511900  0.62384000  0.17238100  1.0
  O  O215  1  0.12512000  0.17238000  0.62383900  1.0
  O  O216  1  0.12512000  0.17237900  0.57866000  1.0
  O  O217  1  0.12512000  0.57866100  0.62383900  1.0
  O  O218  1  0.12512000  0.62383900  0.57866000  1.0
  O  O219  1  0.12547448  0.17951945  0.83508361  1.0
  O  O220  1  0.12547691  0.83508290  0.35992431  1.0
  O  O221  1  0.12548054  0.35992952  0.17951034  1.0
  O  O222  1  0.12637900  0.23226000  0.81605900  1.0
  O  O223  1  0.12637900  0.81606000  0.23225900  1.0
  O  O224  1  0.12638000  0.23225900  0.32530000  1.0
  O  O225  1  0.12638000  0.32530000  0.23225900  1.0
  O  O226  1  0.12638000  0.81606000  0.32530000  1.0
  O  O227  1  0.12638100  0.32530000  0.81605900  1.0
  O  O228  1  0.12726900  0.07595040  0.63161000  1.0
  O  O229  1  0.12726900  0.63161000  0.07595030  1.0
  O  O230  1  0.12727000  0.63161000  0.66517000  1.0
  O  O231  1  0.12727000  0.66517000  0.63161000  1.0
  O  O232  1  0.12727000  0.07595070  0.66517000  1.0
  O  O233  1  0.12727000  0.66516900  0.07595030  1.0
  O  O234  1  0.12792109  0.61922076  0.73543133  1.0
  O  O235  1  0.12792340  0.73543111  0.01742565  1.0
  O  O236  1  0.12949439  0.83058222  0.67768201  1.0
  O  O237  1  0.13209033  0.18613561  0.31133866  1.0
  O  O238  1  0.13209159  0.31134054  0.87043474  1.0
  O  O239  1  0.13209654  0.87043704  0.18612618  1.0
  O  O240  1  0.13254114  0.80604662  0.87119507  1.0
  O  O241  1  0.13254199  0.69021564  0.80604466  1.0
  O  O242  1  0.13308540  0.29667226  0.88897642  1.0
  O  O243  1  0.13308560  0.18126382  0.29667204  1.0
  O  O244  1  0.13543501  0.86423921  0.29965107  1.0
  O  O245  1  0.13576491  0.20447034  0.03200631  1.0
  O  O246  1  0.13576545  0.03200424  0.12775715  1.0
  O  O247  1  0.13861770  0.24525782  0.02564177  1.0
  O  O248  1  0.13861950  0.02564073  0.09048017  1.0
  O  O249  1  0.13920900  0.21553000  0.96219000  1.0
  O  O250  1  0.13920900  0.18307000  0.96219000  1.0
  O  O251  1  0.13920900  0.96218900  0.18307100  1.0
  O  O252  1  0.13920900  0.21553000  0.18307100  1.0
  O  O253  1  0.13921000  0.96218900  0.21552900  1.0
  O  O254  1  0.13921000  0.18307000  0.21552900  1.0
  O  O255  1  0.14113425  0.15696373  0.35275856  1.0
  O  O256  1  0.14113710  0.35275979  0.84914089  1.0
  O  O257  1  0.14114369  0.84914260  0.15695504  1.0
  O  O258  1  0.14376900  0.70843000  0.74449000  1.0
  O  O259  1  0.14376900  0.74449000  0.70843000  1.0
  O  O260  1  0.14377100  0.90330900  0.74449000  1.0
  O  O261  1  0.14377100  0.90331000  0.70843000  1.0
  O  O262  1  0.14377100  0.70842900  0.90330900  1.0
  O  O263  1  0.14377100  0.74448900  0.90330900  1.0
  O  O264  1  0.14489135  0.16071848  0.86920722  1.0
  O  O265  1  0.14489366  0.86920642  0.32518425  1.0
  O  O266  1  0.14489502  0.32519028  0.16070968  1.0
  O  O267  1  0.14497801  0.55346308  0.10340191  1.0
  O  O268  1  0.14497845  0.69815804  0.55346405  1.0
  O  O269  1  0.14497956  0.10339872  0.69815777  1.0
  O  O270  1  0.14537055  0.07566906  0.58346198  1.0
  O  O271  1  0.14537063  0.58345798  0.69549983  1.0
  O  O272  1  0.14537075  0.69549904  0.07567104  1.0
  O  O273  1  0.14848448  0.01501447  0.22572993  1.0
  O  O274  1  0.15031900  0.10384000  0.66354000  1.0
  O  O275  1  0.15031900  0.66354000  0.58230000  1.0
  O  O276  1  0.15032000  0.58229900  0.66354000  1.0
  O  O277  1  0.15032000  0.58230000  0.10384000  1.0
  O  O278  1  0.15032000  0.10384000  0.58230000  1.0
  O  O279  1  0.15032000  0.66353900  0.10384000  1.0
  O  O280  1  0.15044900  0.78481100  0.25908900  1.0
  O  O281  1  0.15044900  0.78481000  0.30565100  1.0
  O  O282  1  0.15045000  0.25909000  0.30565100  1.0
  O  O283  1  0.15045000  0.25909000  0.78480900  1.0
  O  O284  1  0.15045000  0.30564900  0.78480900  1.0
  O  O285  1  0.15045100  0.30565000  0.25908900  1.0
  O  O286  1  0.15228106  0.78287488  0.68600308  1.0
  O  O287  1  0.15326760  0.05565267  0.68900707  1.0
  O  O288  1  0.15329395  0.83503212  0.86669853  1.0
  O  O289  1  0.15329409  0.64497352  0.83503026  1.0
  O  O290  1  0.15503024  0.09543947  0.53395734  1.0
  O  O291  1  0.15503282  0.71557053  0.09544248  1.0
  O  O292  1  0.15503353  0.53395286  0.71557143  1.0
  O  O293  1  0.15561344  0.57851387  0.05425012  1.0
  O  O294  1  0.15561563  0.71162034  0.57851619  1.0
  O  O295  1  0.15561648  0.05424702  0.71162087  1.0
  O  O296  1  0.15734743  0.01242600  0.72421032  1.0
  O  O297  1  0.16185000  0.01850950  0.12076900  1.0
  O  O298  1  0.16185000  0.01851030  0.19886900  1.0
  O  O299  1  0.16185000  0.12077100  0.19886900  1.0
  O  O300  1  0.16185000  0.19887000  0.12076900  1.0
  O  O301  1  0.16185000  0.19887100  0.01850960  1.0
  O  O302  1  0.16185000  0.12077000  0.01850960  1.0
  O  O303  1  0.16220260  0.94036730  0.15065587  1.0
  O  O304  1  0.16220304  0.15065773  0.24677131  1.0
  O  O305  1  0.16220397  0.24677338  0.94036319  1.0
  O  O306  1  0.16244889  0.26592321  0.15306679  1.0
  O  O307  1  0.16245009  0.15306905  0.91855530  1.0
  O  O308  1  0.16245123  0.91855587  0.26592262  1.0
  O  O309  1  0.16482090  0.59755939  0.70378265  1.0
  O  O310  1  0.16482288  0.70378098  0.03383602  1.0
  O  O311  1  0.16670961  0.11700867  0.96196694  1.0
  O  O312  1  0.16671092  0.96196780  0.25431061  1.0
  O  O313  1  0.16671173  0.25431062  0.11700603  1.0
  O  O314  1  0.16789292  0.81266807  0.64162601  1.0
  O  O315  1  0.16914497  0.27712244  0.95064356  1.0
  O  O316  1  0.16914561  0.10308667  0.27711882  1.0
  O  O317  1  0.16914624  0.95064749  0.10308469  1.0
  O  O318  1  0.16921900  0.67467900  0.94354000  1.0
  O  O319  1  0.16921900  0.67468000  0.71255900  1.0
  O  O320  1  0.16921900  0.71256000  0.94354000  1.0
  O  O321  1  0.16921900  0.71256000  0.67467900  1.0
  O  O322  1  0.16922000  0.94354000  0.71255900  1.0
  O  O323  1  0.16922000  0.94353900  0.67467900  1.0
  O  O324  1  0.16984352  0.53032186  0.07103806  1.0
  O  O325  1  0.16984459  0.72879682  0.53032424  1.0
  O  O326  1  0.16984569  0.07103402  0.72879662  1.0
  O  O327  1  0.16987797  0.13537639  0.28811555  1.0
  O  O328  1  0.16987825  0.90662892  0.13537484  1.0
  O  O329  1  0.16988105  0.28811631  0.90662401  1.0
  O  O330  1  0.17017415  0.04765953  0.55561059  1.0
  O  O331  1  0.17017523  0.72655558  0.04766233  1.0
  O  O332  1  0.17017603  0.55560625  0.72655555  1.0
  O  O333  1  0.17084300  0.17084300  0.17084300  1.0
  O  O334  1  0.17084300  0.17084400  0.98746900  1.0
  O  O335  1  0.17084300  0.98747000  0.17084300  1.0
  O  O336  1  0.17234593  0.78662540  0.88259490  1.0
  O  O337  1  0.17234737  0.65843253  0.78662358  1.0
  O  O338  1  0.17238000  0.62383900  0.57866000  1.0
  O  O339  1  0.17238000  0.57866100  0.62383900  1.0
  O  O340  1  0.17238000  0.12512000  0.62383900  1.0
  O  O341  1  0.17238000  0.62384100  0.12511900  1.0
  O  O342  1  0.17238100  0.57865900  0.12511900  1.0
  O  O343  1  0.17238100  0.12512000  0.57866000  1.0
  O  O344  1  0.17367851  0.29447089  0.10700989  1.0
  O  O345  1  0.17367940  0.92483698  0.29447035  1.0
  O  O346  1  0.17368049  0.10701207  0.92483456  1.0
  O  O347  1  0.18306900  0.96219000  0.13921100  1.0
  O  O348  1  0.18306900  0.13921000  0.96219000  1.0
  O  O349  1  0.18306900  0.21553000  0.13921100  1.0
  O  O350  1  0.18307000  0.21553000  0.96219000  1.0
  O  O351  1  0.18307000  0.13921000  0.21552900  1.0
  O  O352  1  0.18307100  0.96218900  0.21552900  1.0
  O  O353  1  0.18393900  0.76774000  0.67470000  1.0
  O  O354  1  0.18394000  0.67469900  0.87362000  1.0
  O  O355  1  0.18394000  0.76773800  0.87362000  1.0
  O  O356  1  0.18394000  0.87362000  0.67470000  1.0
  O  O357  1  0.18394000  0.67469900  0.76773900  1.0
  O  O358  1  0.18394100  0.87361900  0.76773900  1.0
  O  O359  1  0.18846339  0.96663750  0.61834058  1.0
  O  O360  1  0.18846381  0.72654849  0.96663371  1.0
  O  O361  1  0.18846532  0.61834028  0.72654903  1.0
  O  O362  1  0.18853753  0.93123573  0.75190032  1.0
  O  O363  1  0.18900751  0.72832066  0.63769609  1.0
  O  O364  1  0.18901408  0.63771085  0.94495956  1.0
  O  O365  1  0.19438239  0.62752065  0.75839967  1.0
  O  O366  1  0.19438766  0.91968746  0.62751955  1.0
  O  O367  1  0.19439024  0.75839164  0.91968207  1.0
  O  O368  1  0.19555505  0.59127840  0.97343726  1.0
  O  O369  1  0.19556669  0.73972630  0.59126016  1.0
  O  O370  1  0.19610900  0.89595000  0.70397000  1.0
  O  O371  1  0.19611000  0.70396900  0.70397000  1.0
  O  O372  1  0.19611000  0.70396900  0.89595000  1.0
  O  O373  1  0.19644637  0.60322400  0.92909874  1.0
  O  O374  1  0.19644777  0.77123243  0.60320788  1.0
  O  O375  1  0.19886900  0.12077000  0.01850960  1.0
  O  O376  1  0.19887000  0.01850950  0.12076900  1.0
  O  O377  1  0.19887100  0.12076900  0.16185000  1.0
  O  O378  1  0.19887100  0.01850920  0.16185000  1.0
  O  O379  1  0.19887100  0.16185000  0.12076900  1.0
  O  O380  1  0.19887100  0.16185000  0.01850960  1.0
  O  O381  1  0.20008095  0.76508862  0.95212791  1.0
  O  O382  1  0.20008966  0.58268551  0.76508430  1.0
  O  O383  1  0.20009186  0.95213172  0.58268498  1.0
  O  O384  1  0.20448821  0.94621902  0.76946841  1.0
  O  O385  1  0.21039900  0.72783900  0.91106000  1.0
  O  O386  1  0.21039900  0.91106000  0.72784000  1.0
  O  O387  1  0.21039900  0.72783900  0.65070000  1.0
  O  O388  1  0.21040000  0.65069900  0.91106000  1.0
  O  O389  1  0.21040000  0.91105900  0.65070000  1.0
  O  O390  1  0.21040000  0.65069900  0.72784000  1.0
  O  O391  1  0.21518900  0.69435000  0.84955000  1.0
  O  O392  1  0.21518900  0.84954900  0.69435000  1.0
  O  O393  1  0.21519000  0.69435000  0.74090900  1.0
  O  O394  1  0.21519000  0.74090900  0.69435000  1.0
  O  O395  1  0.21519000  0.74090900  0.84955000  1.0
  O  O396  1  0.21519100  0.84954900  0.74090900  1.0
  O  O397  1  0.21552900  0.13921000  0.96219000  1.0
  O  O398  1  0.21553000  0.18307000  0.96219000  1.0
  O  O399  1  0.21553000  0.96218900  0.18307100  1.0
  O  O400  1  0.21553000  0.18306900  0.13921100  1.0
  O  O401  1  0.21553000  0.96219000  0.13921100  1.0
  O  O402  1  0.21553000  0.13921000  0.18307100  1.0
  O  O403  1  0.22327302  0.89949797  0.77406093  1.0
  O  O404  1  0.23039767  0.80388702  0.07561030  1.0
  O  O405  1  0.23040222  0.39009292  0.80388932  1.0
  O  O406  1  0.23041346  0.07564313  0.39005347  1.0
  O  O407  1  0.23225900  0.81606000  0.32530000  1.0
  O  O408  1  0.23225900  0.32530000  0.12638000  1.0
  O  O409  1  0.23225900  0.12638000  0.32530000  1.0
  O  O410  1  0.23226000  0.12638000  0.81605900  1.0
  O  O411  1  0.23226000  0.32530000  0.81605900  1.0
  O  O412  1  0.23226000  0.81605900  0.12638000  1.0
  O  O413  1  0.23251362  0.80372627  0.40963769  1.0
  O  O414  1  0.23251429  0.05412125  0.80372704  1.0
  O  O415  1  0.23251514  0.40963489  0.05412119  1.0
  O  O416  1  0.24479900  0.70768100  0.88473900  1.0
  O  O417  1  0.24480000  0.88473900  0.66278000  1.0
  O  O418  1  0.24480000  0.88474000  0.70767900  1.0
  O  O419  1  0.24480100  0.70767900  0.66278000  1.0
  O  O420  1  0.24480100  0.66277900  0.70767900  1.0
  O  O421  1  0.24480100  0.66277900  0.88473900  1.0
  O  O422  1  0.24766415  0.80255916  0.36515370  1.0
  O  O423  1  0.24766513  0.08462359  0.80255644  1.0
  O  O424  1  0.24766685  0.36515178  0.08462236  1.0
  O  O425  1  0.25036849  0.02275970  0.36185421  1.0
  O  O426  1  0.25036937  0.86502164  0.02275292  1.0
  O  O427  1  0.25036953  0.36185669  0.86502507  1.0
  O  O428  1  0.25423900  0.70069900  0.03027950  1.0
  O  O429  1  0.25423900  0.03028030  0.70070000  1.0
  O  O430  1  0.25424000  0.70070000  0.51478000  1.0
  O  O431  1  0.25424000  0.51477900  0.70070000  1.0
  O  O432  1  0.25424100  0.03027940  0.51478000  1.0
  O  O433  1  0.25424100  0.51478000  0.03027950  1.0
  O  O434  1  0.25527330  0.85568601  0.34500194  1.0
  O  O435  1  0.25527330  0.04403766  0.85568609  1.0
  O  O436  1  0.25527434  0.34500454  0.04403860  1.0
  O  O437  1  0.25551000  0.09668940  0.85622900  1.0
  O  O438  1  0.25551000  0.29157000  0.85622900  1.0
  O  O439  1  0.25551000  0.09668960  0.29156900  1.0
  O  O440  1  0.25551000  0.29157000  0.09668950  1.0
  O  O441  1  0.25551000  0.85622900  0.09668950  1.0
  O  O442  1  0.25551000  0.85623000  0.29156900  1.0
  O  O443  1  0.25908900  0.15044900  0.30565100  1.0
  O  O444  1  0.25908900  0.30565000  0.15045100  1.0
  O  O445  1  0.25909000  0.78481000  0.30565100  1.0
  O  O446  1  0.25909000  0.78481000  0.15045100  1.0
  O  O447  1  0.25909100  0.15045000  0.78480900  1.0
  O  O448  1  0.25909100  0.30564900  0.78480900  1.0
  O  O449  1  0.26078782  0.00160885  0.85642231  1.0
  O  O450  1  0.26078787  0.85642227  0.38117997  1.0
  O  O451  1  0.26078859  0.38118221  0.00160941  1.0
  O  O452  1  0.26225864  0.95411021  0.80652361  1.0
  O  O453  1  0.26225874  0.47710728  0.95410993  1.0
  O  O454  1  0.26226037  0.80652677  0.47710755  1.0
  O  O455  1  0.26259177  0.80909998  0.02884793  1.0
  O  O456  1  0.26259431  0.39945038  0.80910302  1.0
  O  O457  1  0.26259630  0.02887441  0.39940222  1.0
  O  O458  1  0.26569458  0.49573435  0.78440449  1.0
  O  O459  1  0.26569492  0.78440167  0.95416962  1.0
  O  O460  1  0.26769927  0.94380884  0.50019534  1.0
  O  O461  1  0.26909518  0.97667835  0.45417957  1.0
  O  O462  1  0.27216000  0.78960000  0.34930000  1.0
  O  O463  1  0.27216000  0.78960000  0.08894030  1.0
  O  O464  1  0.27216000  0.34929900  0.08894030  1.0
  O  O465  1  0.27216000  0.08894040  0.78959900  1.0
  O  O466  1  0.27216000  0.08893970  0.34930000  1.0
  O  O467  1  0.27216100  0.34930000  0.78959900  1.0
  O  O468  1  0.27301404  0.80709184  0.06331873  1.0
  O  O469  1  0.27302239  0.35656756  0.80708657  1.0
  O  O470  1  0.27304363  0.06335767  0.35653607  1.0
  O  O471  1  0.27331374  0.44679024  0.80116692  1.0
  O  O472  1  0.27331480  0.80116487  0.97873091  1.0
  O  O473  1  0.27490000  0.53460000  0.97215900  1.0
  O  O474  1  0.27490000  0.53459900  0.71834000  1.0
  O  O475  1  0.27490000  0.97216000  0.71834000  1.0
  O  O476  1  0.27490000  0.71834000  0.97215900  1.0
  O  O477  1  0.27490100  0.97215900  0.53459900  1.0
  O  O478  1  0.27490100  0.71833900  0.53459900  1.0
  O  O479  1  0.27508177  0.81187499  0.37496997  1.0
  O  O480  1  0.27508310  0.03807397  0.81187374  1.0
  O  O481  1  0.27508428  0.37496766  0.03807258  1.0
  O  O482  1  0.27571542  0.35293057  0.82159459  1.0
  O  O483  1  0.27572004  0.82159133  0.04975923  1.0
  O  O484  1  0.27572457  0.04976169  0.35292560  1.0
  O  O485  1  0.27802362  0.82768185  0.00643176  1.0
  O  O486  1  0.27802418  0.38786202  0.82768337  1.0
  O  O487  1  0.27802427  0.00643535  0.38786040  1.0
  O  O488  1  0.27981498  0.75830377  0.49669107  1.0
  O  O489  1  0.27981682  0.49669158  0.96519007  1.0
  O  O490  1  0.27981695  0.96519125  0.75830098  1.0
  O  O491  1  0.28165900  0.02784040  0.46540000  1.0
  O  O492  1  0.28166000  0.46539900  0.72509900  1.0
  O  O493  1  0.28166000  0.46540000  0.02783940  1.0
  O  O494  1  0.28166000  0.72509900  0.46540000  1.0
  O  O495  1  0.28166000  0.72509900  0.02783940  1.0
  O  O496  1  0.28166000  0.02783980  0.72509900  1.0
  O  O497  1  0.28211321  0.77644618  0.45070480  1.0
  O  O498  1  0.28211562  0.45070536  0.99073736  1.0
  O  O499  1  0.28211685  0.99073673  0.77644231  1.0
  O  O500  1  0.28397000  0.51355000  0.04087040  1.0
  O  O501  1  0.28397000  0.66160900  0.04087040  1.0
  O  O502  1  0.28397000  0.04087040  0.66160900  1.0
  O  O503  1  0.28397000  0.51355000  0.66160900  1.0
  O  O504  1  0.28397000  0.66161000  0.51355000  1.0
  O  O505  1  0.28397100  0.04086930  0.51355000  1.0
  O  O506  1  0.28483954  0.97960447  0.48164969  1.0
  O  O507  1  0.28744000  0.05645970  0.32532000  1.0
  O  O508  1  0.28744000  0.05645980  0.83077900  1.0
  O  O509  1  0.28744000  0.32531900  0.05646040  1.0
  O  O510  1  0.28744000  0.32532000  0.83077900  1.0
  O  O511  1  0.28744000  0.83077900  0.32532000  1.0
  O  O512  1  0.28744000  0.83077900  0.05646040  1.0
  O  O513  1  0.28913342  0.47113644  0.75378597  1.0
  O  O514  1  0.28913655  0.75378393  0.98594492  1.0
  O  O515  1  0.29156900  0.25551100  0.85622900  1.0
  O  O516  1  0.29156900  0.25551000  0.09668950  1.0
  O  O517  1  0.29157000  0.09668940  0.85622900  1.0
  O  O518  1  0.29157000  0.85622900  0.25550900  1.0
  O  O519  1  0.29157000  0.09669040  0.25550900  1.0
  O  O520  1  0.29157000  0.85622900  0.09668950  1.0
  O  O521  1  0.29166077  0.74723954  0.25784631  1.0
  O  O522  1  0.29231900  0.75520000  0.33722100  1.0
  O  O523  1  0.29231900  0.11526000  0.75519900  1.0
  O  O524  1  0.29231900  0.11525900  0.33722100  1.0
  O  O525  1  0.29231900  0.33722000  0.11526000  1.0
  O  O526  1  0.29232000  0.33722000  0.75519900  1.0
  O  O527  1  0.29232000  0.75519900  0.11526000  1.0
  O  O528  1  0.29603000  0.10405000  0.80388900  1.0
  O  O529  1  0.29603000  0.10405000  0.29603100  1.0
  O  O530  1  0.29603000  0.29602900  0.10405100  1.0
  O  O531  1  0.29603000  0.80388900  0.29603100  1.0
  O  O532  1  0.29603000  0.80388900  0.10405100  1.0
  O  O533  1  0.29603000  0.29602900  0.80388900  1.0
  O  O534  1  0.29878443  0.26570507  0.75740227  1.0
  O  O535  1  0.29878966  0.17810461  0.26570491  1.0
  O  O536  1  0.29929900  0.74576000  0.96971900  1.0
  O  O537  1  0.29929900  0.96972000  0.74576100  1.0
  O  O538  1  0.29930000  0.74576000  0.48521900  1.0
  O  O539  1  0.29930000  0.96972000  0.48521900  1.0
  O  O540  1  0.29930000  0.48521900  0.74576100  1.0
  O  O541  1  0.29930000  0.48521900  0.96971900  1.0
  O  O542  1  0.30047959  0.53698635  0.05977686  1.0
  O  O543  1  0.30366000  0.46250000  0.68305900  1.0
  O  O544  1  0.30366000  0.05078020  0.46250000  1.0
  O  O545  1  0.30366100  0.05077980  0.68305900  1.0
  O  O546  1  0.30366100  0.46249900  0.05077900  1.0
  O  O547  1  0.30366100  0.68305900  0.46250000  1.0
  O  O548  1  0.30366100  0.68306000  0.05077900  1.0
  O  O549  1  0.30399077  0.23822253  0.73606346  1.0
  O  O550  1  0.30399688  0.22171934  0.23822305  1.0
  O  O551  1  0.30564900  0.25908900  0.15045100  1.0
  O  O552  1  0.30564900  0.78481000  0.15045100  1.0
  O  O553  1  0.30565000  0.15045000  0.78480900  1.0
  O  O554  1  0.30565000  0.15045000  0.25908900  1.0
  O  O555  1  0.30565000  0.78481100  0.25908900  1.0
  O  O556  1  0.30565100  0.25909000  0.78480900  1.0
  O  O557  1  0.30582103  0.07090763  0.54548170  1.0
  O  O558  1  0.30582273  0.54548031  0.57778617  1.0
  O  O559  1  0.31559098  0.04250622  0.52266992  1.0
  O  O560  1  0.31559334  0.52266675  0.61922919  1.0
  O  O561  1  0.31622900  0.50000100  0.68376900  1.0
  O  O562  1  0.31622900  0.00000000  0.50000000  1.0
  O  O563  1  0.31622900  0.50000000  0.00000000  1.0
  O  O564  1  0.31623000  0.68377000  0.00000000  1.0
  O  O565  1  0.31623000  0.68376900  0.50000000  1.0
  O  O566  1  0.31623100  0.00000000  0.68376900  1.0
  O  O567  1  0.31693900  0.53750000  0.94922000  1.0
  O  O568  1  0.31693900  0.69634000  0.53749900  1.0
  O  O569  1  0.31693900  0.53750000  0.69634000  1.0
  O  O570  1  0.31694000  0.94921900  0.53749900  1.0
  O  O571  1  0.31694100  0.94921900  0.69634000  1.0
  O  O572  1  0.31694100  0.69633900  0.94922000  1.0
  O  O573  1  0.32529900  0.23226000  0.81605900  1.0
  O  O574  1  0.32529900  0.81606000  0.23225900  1.0
  O  O575  1  0.32530000  0.12638000  0.81605900  1.0
  O  O576  1  0.32530000  0.23226000  0.12638000  1.0
  O  O577  1  0.32530000  0.81605900  0.12638000  1.0
  O  O578  1  0.32530100  0.12638000  0.23225900  1.0
  O  O579  1  0.32532000  0.05646100  0.28743900  1.0
  O  O580  1  0.32532000  0.05645980  0.83077900  1.0
  O  O581  1  0.32532000  0.28744100  0.05646040  1.0
  O  O582  1  0.32532000  0.28744100  0.83077900  1.0
  O  O583  1  0.32532000  0.83077900  0.05646040  1.0
  O  O584  1  0.32532000  0.83078000  0.28743900  1.0
  O  O585  1  0.32903900  0.01694000  0.52218000  1.0
  O  O586  1  0.32903900  0.52217900  0.01694060  1.0
  O  O587  1  0.32904000  0.01694060  0.63184000  1.0
  O  O588  1  0.32904000  0.52218000  0.63184000  1.0
  O  O589  1  0.32904000  0.63183900  0.01694060  1.0
  O  O590  1  0.32904100  0.63183900  0.52218000  1.0
  O  O591  1  0.33368150  0.72939991  0.22671122  1.0
  O  O592  1  0.33400699  0.74949863  0.25204748  1.0
  O  O593  1  0.33455364  0.73105635  0.33366654  1.0
  O  O594  1  0.33455404  0.33367120  0.10071208  1.0
  O  O595  1  0.33455759  0.10071169  0.73105162  1.0
  O  O596  1  0.33482800  0.92405000  0.36839100  1.0
  O  O597  1  0.33482800  0.36839000  0.92405000  1.0
  O  O598  1  0.33483000  0.36839000  0.87273000  1.0
  O  O599  1  0.33483000  0.87272900  0.92405000  1.0
  O  O600  1  0.33483000  0.87273000  0.36839100  1.0
  O  O601  1  0.33483100  0.92404900  0.87273000  1.0
  O  O602  1  0.33645900  0.84968000  0.41770000  1.0
  O  O603  1  0.33645900  0.89616000  0.41770000  1.0
  O  O604  1  0.33646000  0.41770000  0.84967900  1.0
  O  O605  1  0.33646000  0.41769900  0.89616000  1.0
  O  O606  1  0.33646000  0.84968000  0.89616000  1.0
  O  O607  1  0.33646000  0.89616000  0.84967900  1.0
  O  O608  1  0.33722000  0.29232000  0.11526000  1.0
  O  O609  1  0.33722000  0.29232000  0.75519900  1.0
  O  O610  1  0.33722000  0.75520100  0.29232000  1.0
  O  O611  1  0.33722000  0.11525900  0.29232000  1.0
  O  O612  1  0.33722100  0.11526000  0.75519900  1.0
  O  O613  1  0.33722100  0.75519900  0.11526000  1.0
  O  O614  1  0.33838900  0.48645000  0.95913000  1.0
  O  O615  1  0.33838900  0.48645100  0.71602900  1.0
  O  O616  1  0.33838900  0.71603100  0.48644900  1.0
  O  O617  1  0.33839000  0.71602900  0.95913000  1.0
  O  O618  1  0.33839000  0.95913000  0.48644900  1.0
  O  O619  1  0.33839100  0.95912900  0.71602900  1.0
  O  O620  1  0.34015380  0.52985316  0.06783217  1.0
  O  O621  1  0.34092409  0.72051534  0.13033056  1.0
  O  O622  1  0.34092875  0.13033345  0.30823150  1.0
  O  O623  1  0.34113672  0.30864633  0.71980696  1.0
  O  O624  1  0.34397645  0.23755984  0.73549781  1.0
  O  O625  1  0.34398184  0.18296124  0.23755690  1.0
  O  O626  1  0.34427832  0.43076775  0.67983365  1.0
  O  O627  1  0.34427840  0.67983605  0.04511715  1.0
  O  O628  1  0.34427921  0.04511842  0.43076984  1.0
  O  O629  1  0.34453152  0.50949502  0.03991482  1.0
  O  O630  1  0.34793044  0.71269123  0.09056959  1.0
  O  O631  1  0.34793723  0.09057130  0.34880881  1.0
  O  O632  1  0.34837231  0.34901143  0.71218171  1.0
  O  O633  1  0.34918900  0.64465000  0.53087000  1.0
  O  O634  1  0.34919000  0.53087000  0.97528900  1.0
  O  O635  1  0.34919000  0.97528900  0.53087000  1.0
  O  O636  1  0.34919000  0.53087000  0.64464900  1.0
  O  O637  1  0.34919100  0.64465000  0.97528900  1.0
  O  O638  1  0.34919100  0.97528900  0.64464900  1.0
  O  O639  1  0.34929900  0.78960000  0.08894030  1.0
  O  O640  1  0.34929900  0.08894040  0.78959900  1.0
  O  O641  1  0.34930000  0.27216000  0.78959900  1.0
  O  O642  1  0.34930000  0.08894080  0.27215900  1.0
  O  O643  1  0.34930000  0.27216000  0.08894030  1.0
  O  O644  1  0.34930000  0.78959900  0.27215900  1.0
  O  O645  1  0.35146264  0.05520739  0.51377814  1.0
  O  O646  1  0.35146515  0.51377822  0.57954686  1.0
  O  O647  1  0.35260333  0.68919018  0.40557506  1.0
  O  O648  1  0.35260550  0.40557310  0.05262869  1.0
  O  O649  1  0.35383277  0.05218363  0.69042286  1.0
  O  O650  1  0.35498354  0.64445109  0.44147670  1.0
  O  O651  1  0.35498387  0.44147366  0.05908931  1.0
  O  O652  1  0.35506785  0.06150754  0.64518296  1.0
  O  O653  1  0.35535000  0.65080900  0.46913000  1.0
  O  O654  1  0.35535000  0.65080900  0.02470930  1.0
  O  O655  1  0.35535000  0.02470940  0.65080900  1.0
  O  O656  1  0.35535000  0.02470980  0.46913000  1.0
  O  O657  1  0.35535000  0.46913000  0.65080900  1.0
  O  O658  1  0.35535100  0.46912900  0.02470930  1.0
  O  O659  1  0.35738566  0.31101643  0.13455990  1.0
  O  O660  1  0.35739161  0.69703533  0.31100614  1.0
  O  O661  1  0.35739311  0.13455650  0.69702760  1.0
  O  O662  1  0.36815900  0.67096000  0.98306000  1.0
  O  O663  1  0.36815900  0.67096100  0.47781900  1.0
  O  O664  1  0.36816000  0.98305800  0.67096000  1.0
  O  O665  1  0.36816000  0.47781900  0.98306000  1.0
  O  O666  1  0.36816000  0.47781900  0.67096000  1.0
  O  O667  1  0.36816100  0.98305900  0.47781900  1.0
  O  O668  1  0.36838900  0.87273000  0.33482900  1.0
  O  O669  1  0.36839000  0.33482900  0.92405000  1.0
  O  O670  1  0.36839000  0.92405000  0.33482900  1.0
  O  O671  1  0.36839000  0.33482900  0.87273000  1.0
  O  O672  1  0.36839000  0.87272900  0.92405000  1.0
  O  O673  1  0.36839000  0.92404900  0.87273000  1.0
  O  O674  1  0.36850379  0.63664286  0.07338223  1.0
  O  O675  1  0.36850460  0.42147164  0.63663980  1.0
  O  O676  1  0.36850634  0.07338123  0.42147388  1.0
  O  O677  1  0.36890857  0.34718922  0.09454021  1.0
  O  O678  1  0.36890966  0.68935669  0.34718334  1.0
  O  O679  1  0.36892070  0.09453226  0.68935686  1.0
  O  O680  1  0.37121215  0.38572266  0.67836526  1.0
  O  O681  1  0.37121247  0.06469867  0.38572466  1.0
  O  O682  1  0.37121253  0.67836852  0.06469589  1.0
  O  O683  1  0.37366900  0.87633000  0.37367100  1.0
  O  O684  1  0.37366900  0.87633000  0.87632900  1.0
  O  O685  1  0.37367000  0.37367100  0.87632900  1.0
  O  O686  1  0.37428212  0.68047288  0.11950392  1.0
  O  O687  1  0.37429342  0.11950199  0.32573655  1.0
  O  O688  1  0.37496989  0.32576069  0.68010996  1.0
  O  O689  1  0.37616000  0.82762000  0.42133900  1.0
  O  O690  1  0.37616000  0.42134000  0.87487900  1.0
  O  O691  1  0.37616000  0.42134000  0.82762000  1.0
  O  O692  1  0.37616000  0.87488000  0.82762000  1.0
  O  O693  1  0.37616000  0.87488000  0.42133900  1.0
  O  O694  1  0.37616100  0.82761900  0.87487900  1.0
  O  O695  1  0.38023410  0.64853906  0.39475019  1.0
  O  O696  1  0.38023599  0.39474713  0.07647472  1.0
  O  O697  1  0.38211097  0.07585128  0.65043662  1.0
  O  O698  1  0.40936562  0.88849428  0.40882433  1.0
  O  O699  1  0.40936587  0.79331087  0.88849580  1.0
  O  O700  1  0.40937323  0.40882621  0.79331134  1.0
  O  O701  1  0.41152454  0.41653546  0.90273240  1.0
  O  O702  1  0.41152812  0.90273109  0.76920136  1.0
  O  O703  1  0.41153020  0.76920242  0.41653831  1.0
  O  O704  1  0.41770000  0.33646000  0.89616000  1.0
  O  O705  1  0.41770000  0.89616000  0.84967900  1.0
  O  O706  1  0.41770000  0.84968000  0.33646000  1.0
  O  O707  1  0.41770000  0.84968000  0.89616000  1.0
  O  O708  1  0.41770100  0.33646000  0.84967900  1.0
  O  O709  1  0.41770100  0.89615900  0.33646000  1.0
  O  O710  1  0.42133900  0.37616000  0.82762000  1.0
  O  O711  1  0.42133900  0.82762000  0.37615900  1.0
  O  O712  1  0.42133900  0.37616100  0.87487900  1.0
  O  O713  1  0.42133900  0.87488000  0.82762000  1.0
  O  O714  1  0.42134000  0.82761900  0.87487900  1.0
  O  O715  1  0.42134000  0.87487900  0.37615900  1.0
  O  O716  1  0.43272027  0.74593920  0.90607635  1.0
  O  O717  1  0.43272114  0.90607185  0.41526318  1.0
  O  O718  1  0.43272790  0.41526311  0.74593966  1.0
  O  O719  1  0.44061725  0.40028686  0.86356140  1.0
  O  O720  1  0.44062098  0.86355990  0.79552799  1.0
  O  O721  1  0.44062292  0.79553022  0.40028708  1.0
  O  O722  1  0.45794659  0.86569614  0.40385860  1.0
  O  O723  1  0.45794675  0.77249188  0.86569910  1.0
  O  O724  1  0.45795579  0.40385413  0.77249401  1.0
  O  O725  1  0.45906266  0.40806850  0.88505491  1.0
  O  O726  1  0.45906671  0.88505585  0.74780809  1.0
  O  O727  1  0.45906918  0.74781017  0.40806592  1.0
  O  O728  1  0.46249900  0.30366000  0.68305900  1.0
  O  O729  1  0.46249900  0.05077980  0.68305900  1.0
  O  O730  1  0.46250000  0.68306000  0.05077900  1.0
  O  O731  1  0.46250000  0.30366000  0.05077900  1.0
  O  O732  1  0.46250000  0.05078070  0.30365900  1.0
  O  O733  1  0.46250000  0.68305900  0.30365900  1.0
  O  O734  1  0.46539900  0.72509900  0.28166100  1.0
  O  O735  1  0.46539900  0.28166000  0.02783940  1.0
  O  O736  1  0.46539900  0.02784020  0.28166100  1.0
  O  O737  1  0.46540000  0.72509900  0.02783940  1.0
  O  O738  1  0.46540000  0.02783980  0.72509900  1.0
  O  O739  1  0.46540000  0.28165900  0.72509900  1.0
  O  O740  1  0.46912900  0.02470990  0.35535000  1.0
  O  O741  1  0.46912900  0.35535000  0.65080900  1.0
  O  O742  1  0.46912900  0.65080900  0.35535000  1.0
  O  O743  1  0.46913000  0.35535000  0.02470930  1.0
  O  O744  1  0.46913100  0.65080900  0.02470930  1.0
  O  O745  1  0.46913100  0.02470940  0.65080900  1.0
  O  O746  1  0.47781900  0.67096000  0.98306000  1.0
  O  O747  1  0.47781900  0.98305800  0.67096000  1.0
  O  O748  1  0.47781900  0.36815900  0.67096000  1.0
  O  O749  1  0.47782000  0.36815900  0.98306000  1.0
  O  O750  1  0.47782000  0.98306000  0.36815900  1.0
  O  O751  1  0.47782000  0.67096000  0.36815900  1.0
  O  O752  1  0.48521900  0.74576000  0.96971900  1.0
  O  O753  1  0.48521900  0.96972000  0.74576100  1.0
  O  O754  1  0.48522000  0.29930000  0.74576100  1.0
  O  O755  1  0.48522000  0.29930000  0.96971900  1.0
  O  O756  1  0.48522100  0.96971900  0.29929900  1.0
  O  O757  1  0.48522100  0.74575900  0.29929900  1.0
  O  O758  1  0.48644900  0.33838900  0.95913000  1.0
  O  O759  1  0.48644900  0.95912900  0.33839000  1.0
  O  O760  1  0.48645000  0.71602900  0.95913000  1.0
  O  O761  1  0.48645000  0.71602900  0.33839000  1.0
  O  O762  1  0.48645100  0.95912900  0.71602900  1.0
  O  O763  1  0.48645100  0.33839000  0.71602900  1.0
  O  O764  1  0.49999900  0.00000000  0.68376900  1.0
  O  O765  1  0.49999900  0.68377000  0.00000000  1.0
  O  O766  1  0.50000000  0.00000000  0.31623000  1.0
  O  O767  1  0.50000000  0.68377000  0.31623000  1.0
  O  O768  1  0.50000100  0.31623000  0.68376900  1.0
  O  O769  1  0.50000100  0.31622900  0.00000000  1.0
  O  O770  1  0.50435936  0.72759954  0.23201820  1.0
  O  O771  1  0.50436030  0.23201625  0.03602098  1.0
  O  O772  1  0.50436236  0.03601887  0.72760135  1.0
  O  O773  1  0.50825528  0.20729307  0.73648936  1.0
  O  O774  1  0.50825606  0.04795862  0.20729382  1.0
  O  O775  1  0.50826105  0.73648993  0.04795912  1.0
  O  O776  1  0.50965181  0.34513428  0.04800507  1.0
  O  O777  1  0.50965202  0.59720382  0.34513672  1.0
  O  O778  1  0.50965357  0.04800802  0.59720669  1.0
  O  O779  1  0.51355000  0.66160900  0.28397000  1.0
  O  O780  1  0.51355000  0.66160900  0.04087040  1.0
  O  O781  1  0.51355000  0.04087010  0.28397000  1.0
  O  O782  1  0.51355000  0.04087040  0.66160900  1.0
  O  O783  1  0.51355000  0.28397000  0.04087040  1.0
  O  O784  1  0.51355100  0.28397000  0.66160900  1.0
  O  O785  1  0.51477900  0.03028070  0.25424000  1.0
  O  O786  1  0.51477900  0.25424100  0.03027950  1.0
  O  O787  1  0.51477900  0.03028030  0.70070000  1.0
  O  O788  1  0.51477900  0.70069900  0.03027950  1.0
  O  O789  1  0.51478000  0.25424000  0.70070000  1.0
  O  O790  1  0.51478100  0.70069900  0.25424000  1.0
  O  O791  1  0.51797950  0.05932985  0.35043457  1.0
  O  O792  1  0.51797984  0.35043289  0.57225644  1.0
  O  O793  1  0.51798071  0.57225500  0.05933047  1.0
  O  O794  1  0.52217900  0.01694020  0.32904100  1.0
  O  O795  1  0.52217900  0.01694060  0.63184000  1.0
  O  O796  1  0.52217900  0.63183900  0.01694060  1.0
  O  O797  1  0.52217900  0.32904000  0.01694060  1.0
  O  O798  1  0.52217900  0.63183900  0.32904100  1.0
  O  O799  1  0.52218000  0.32903900  0.63184000  1.0
  O  O800  1  0.52527633  0.61283150  0.05108400  1.0
  O  O801  1  0.52527686  0.05108431  0.31080763  1.0
  O  O802  1  0.52527720  0.31080623  0.61283173  1.0
  O  O803  1  0.52908732  0.75355861  0.96541093  1.0
  O  O804  1  0.52910830  0.25188367  0.75360740  1.0
  O  O805  1  0.52910975  0.96539863  0.25188242  1.0
  O  O806  1  0.53059623  0.73511772  0.18492964  1.0
  O  O807  1  0.53059703  0.18492777  0.04935565  1.0
  O  O808  1  0.53059884  0.04935389  0.73511838  1.0
  O  O809  1  0.53087000  0.97529000  0.34918900  1.0
  O  O810  1  0.53087000  0.34919000  0.97528900  1.0
  O  O811  1  0.53087000  0.64465000  0.97528900  1.0
  O  O812  1  0.53087000  0.64465100  0.34918900  1.0
  O  O813  1  0.53087000  0.97528900  0.64464900  1.0
  O  O814  1  0.53087000  0.34919000  0.64464900  1.0
  O  O815  1  0.53459900  0.27489900  0.71834000  1.0
  O  O816  1  0.53459900  0.27490000  0.97215900  1.0
  O  O817  1  0.53459900  0.71834000  0.27490000  1.0
  O  O818  1  0.53459900  0.97215900  0.27490000  1.0
  O  O819  1  0.53459900  0.97216000  0.71834000  1.0
  O  O820  1  0.53460000  0.71834000  0.97215900  1.0
  O  O821  1  0.53467752  0.01139599  0.23737974  1.0
  O  O822  1  0.53467801  0.23737725  0.71654675  1.0
  O  O823  1  0.53468393  0.71654567  0.01139604  1.0
  O  O824  1  0.53749900  0.69633900  0.94922000  1.0
  O  O825  1  0.53749900  0.69634100  0.31693900  1.0
  O  O826  1  0.53749900  0.31694000  0.69634000  1.0
  O  O827  1  0.53750000  0.94921900  0.69634000  1.0
  O  O828  1  0.53750000  0.31694000  0.94922000  1.0
  O  O829  1  0.53750000  0.94921900  0.31693900  1.0
  O  O830  1  0.53855475  0.24580363  0.99024902  1.0
  O  O831  1  0.53895428  0.33726834  0.06882836  1.0
  O  O832  1  0.53895632  0.55494372  0.33727193  1.0
  O  O833  1  0.53895803  0.06882898  0.55494707  1.0
  O  O834  1  0.53921356  0.72368111  0.24625714  1.0
  O  O835  1  0.53921363  0.99084414  0.72368839  1.0
  O  O836  1  0.54118798  0.59546198  0.29944616  1.0
  O  O837  1  0.54118808  0.29944360  0.06390064  1.0
  O  O838  1  0.54119215  0.06390041  0.59546593  1.0
  O  O839  1  0.54241205  0.76828608  0.23224116  1.0
  O  O840  1  0.54241760  0.95705310  0.76829055  1.0
  O  O841  1  0.54250497  0.23319534  0.95504439  1.0
  O  O842  1  0.55212559  0.07142304  0.30833456  1.0
  O  O843  1  0.55212634  0.30833295  0.56811746  1.0
  O  O844  1  0.55212673  0.56811798  0.07142218  1.0
  O  O845  1  0.55328270  0.72007166  0.21525251  1.0
  O  O846  1  0.55328389  0.21525023  0.01139222  1.0
  O  O847  1  0.55328623  0.01139111  0.72007142  1.0
  O  O848  1  0.55615219  0.18944684  0.72580119  1.0
  O  O849  1  0.55615305  0.02859527  0.18944928  1.0
  O  O850  1  0.55615861  0.72579653  0.02860043  1.0
  O  O851  1  0.55739215  0.72380539  0.99486150  1.0
  O  O852  1  0.55741937  0.22388217  0.72385340  1.0
  O  O853  1  0.55742088  0.99484298  0.22388163  1.0
  O  O854  1  0.56509702  0.76431797  0.95982915  1.0
  O  O855  1  0.56515918  0.21073066  0.76433646  1.0
  O  O856  1  0.56516147  0.95977142  0.21072991  1.0
  O  O857  1  0.57304225  0.20580084  0.98006082  1.0
  O  O858  1  0.57367575  0.73911177  0.20598730  1.0
  O  O859  1  0.57367983  0.98121916  0.73911477  1.0
  O  O860  1  0.57865800  0.12512000  0.17238100  1.0
  O  O861  1  0.57865900  0.17238000  0.12511900  1.0
  O  O862  1  0.57865900  0.62384000  0.17238100  1.0
  O  O863  1  0.57866000  0.62384100  0.12511900  1.0
  O  O864  1  0.57866000  0.12512000  0.62383900  1.0
  O  O865  1  0.57866000  0.17238000  0.62383900  1.0
  O  O866  1  0.58205860  0.57432058  0.09766889  1.0
  O  O867  1  0.58205941  0.09766529  0.24595431  1.0
  O  O868  1  0.58206022  0.24595276  0.57432188  1.0
  O  O869  1  0.58216199  0.09642714  0.57675874  1.0
  O  O870  1  0.58229900  0.15031900  0.10384000  1.0
  O  O871  1  0.58229900  0.10384000  0.15032000  1.0
  O  O872  1  0.58230000  0.66353900  0.15032000  1.0
  O  O873  1  0.58230000  0.15032000  0.66354000  1.0
  O  O874  1  0.58230000  0.66353900  0.10384000  1.0
  O  O875  1  0.58230000  0.10384000  0.66354000  1.0
  O  O876  1  0.58528284  0.59172996  0.22295512  1.0
  O  O877  1  0.58528528  0.22294894  0.10003125  1.0
  O  O878  1  0.59059388  0.24373293  0.12260312  1.0
  O  O879  1  0.59059660  0.54306429  0.24373756  1.0
  O  O880  1  0.59777850  0.16374321  0.69753134  1.0
  O  O881  1  0.59777877  0.69752920  0.04094290  1.0
  O  O882  1  0.59777998  0.04094248  0.16374974  1.0
  O  O883  1  0.59788207  0.11388181  0.19742761  1.0
  O  O884  1  0.59788455  0.59080813  0.11388210  1.0
  O  O885  1  0.59788458  0.19742605  0.59080923  1.0
  O  O886  1  0.59795882  0.13706544  0.21966286  1.0
  O  O887  1  0.59795955  0.21966087  0.54531420  1.0
  O  O888  1  0.59796100  0.54531262  0.13706713  1.0
  O  O889  1  0.60102708  0.71866987  0.15838506  1.0
  O  O890  1  0.60102710  0.02191775  0.71867024  1.0
  O  O891  1  0.60186368  0.14975327  0.02632335  1.0
  O  O892  1  0.60458351  0.08581101  0.60589102  1.0
  O  O893  1  0.60507816  0.56446211  0.19555912  1.0
  O  O894  1  0.60508051  0.19555429  0.13489985  1.0
  O  O895  1  0.60754192  0.68079317  0.14986744  1.0
  O  O896  1  0.60754203  0.06179711  0.68079337  1.0
  O  O897  1  0.61167900  0.13654945  0.06585666  1.0
  O  O898  1  0.61405922  0.05068139  0.59180326  1.0
  O  O899  1  0.61668936  0.02785003  0.12347832  1.0
  O  O900  1  0.61668971  0.73198263  0.02784995  1.0
  O  O901  1  0.61669255  0.12347298  0.73198336  1.0
  O  O902  1  0.62074554  0.69201428  0.06679713  1.0
  O  O903  1  0.62074618  0.06679683  0.12044331  1.0
  O  O904  1  0.62074865  0.12043747  0.69201534  1.0
  O  O905  1  0.62104215  0.71730378  0.11190203  1.0
  O  O906  1  0.62104281  0.04975152  0.71730366  1.0
  O  O907  1  0.62383800  0.12512000  0.17238100  1.0
  O  O908  1  0.62383900  0.57865900  0.12511900  1.0
  O  O909  1  0.62383900  0.17238000  0.12511900  1.0
  O  O910  1  0.62383900  0.57865900  0.17238100  1.0
  O  O911  1  0.62383900  0.12512000  0.57866000  1.0
  O  O912  1  0.62383900  0.17237900  0.57866000  1.0
  O  O913  1  0.62632800  0.12367100  0.62633000  1.0
  O  O914  1  0.62632900  0.62633000  0.12366900  1.0
  O  O915  1  0.62633000  0.12366900  0.12366900  1.0
  O  O916  1  0.63160900  0.07595050  0.12726900  1.0
  O  O917  1  0.63160900  0.07595070  0.66517000  1.0
  O  O918  1  0.63160900  0.12727000  0.07595030  1.0
  O  O919  1  0.63160900  0.66516900  0.07595030  1.0
  O  O920  1  0.63161000  0.12726900  0.66517000  1.0
  O  O921  1  0.63161000  0.66517000  0.12726900  1.0
  O  O922  1  0.63161761  0.10373027  0.04451076  1.0
  O  O923  1  0.63183900  0.01694020  0.32904100  1.0
  O  O924  1  0.63183900  0.52217900  0.32904100  1.0
  O  O925  1  0.63183900  0.32904000  0.01694060  1.0
  O  O926  1  0.63183900  0.32904000  0.52218000  1.0
  O  O927  1  0.63184000  0.01694000  0.52218000  1.0
  O  O928  1  0.63184000  0.52217900  0.01694060  1.0
  O  O929  1  0.63663873  0.36850580  0.42147402  1.0
  O  O930  1  0.64162469  0.81266411  0.87781247  1.0
  O  O931  1  0.64444695  0.35498676  0.05908908  1.0
  O  O932  1  0.64444811  0.05908935  0.44147517  1.0
  O  O933  1  0.64464900  0.34919000  0.53087000  1.0
  O  O934  1  0.64465000  0.53086900  0.34918900  1.0
  O  O935  1  0.64465000  0.53087000  0.97528900  1.0
  O  O936  1  0.64465000  0.97529000  0.34918900  1.0
  O  O937  1  0.64465000  0.97528900  0.53087000  1.0
  O  O938  1  0.64465000  0.34919000  0.97528900  1.0
  O  O939  1  0.64497304  0.83503214  0.15329537  1.0
  O  O940  1  0.64497400  0.15329313  0.86669813  1.0
  O  O941  1  0.64853527  0.38023862  0.07647531  1.0
  O  O942  1  0.64853727  0.07647520  0.39474854  1.0
  O  O943  1  0.65069900  0.21040000  0.91106000  1.0
  O  O944  1  0.65069900  0.21040000  0.72784000  1.0
  O  O945  1  0.65069900  0.72783900  0.91106000  1.0
  O  O946  1  0.65069900  0.91106000  0.72784000  1.0
  O  O947  1  0.65070000  0.72783900  0.21040000  1.0
  O  O948  1  0.65070000  0.91105900  0.21040000  1.0
  O  O949  1  0.65080900  0.02470980  0.46913000  1.0
  O  O950  1  0.65080900  0.35534900  0.46913000  1.0
  O  O951  1  0.65081000  0.35535000  0.02470930  1.0
  O  O952  1  0.65081000  0.46912900  0.35535000  1.0
  O  O953  1  0.65081000  0.46912900  0.02470930  1.0
  O  O954  1  0.65081000  0.02470990  0.35535000  1.0
  O  O955  1  0.65375018  0.32861739  0.93452817  1.0
  O  O956  1  0.65375347  0.60363351  0.91390592  1.0
  O  O957  1  0.65375379  0.91390333  0.32870479  1.0
  O  O958  1  0.65375480  0.32870509  0.60363081  1.0
  O  O959  1  0.65389076  0.58293148  0.32879162  1.0
  O  O960  1  0.65389315  0.93438410  0.58292905  1.0
  O  O961  1  0.65843111  0.78662545  0.17234772  1.0
  O  O962  1  0.65843175  0.17234509  0.88259512  1.0
  O  O963  1  0.66091858  0.11146061  0.42097153  1.0
  O  O964  1  0.66091934  0.42095868  0.30665774  1.0
  O  O965  1  0.66093259  0.30677716  0.11154773  1.0
  O  O966  1  0.66108049  0.09102377  0.30660545  1.0
  O  O967  1  0.66121675  0.44157333  0.09089700  1.0
  O  O968  1  0.66122111  0.30629811  0.44158499  1.0
  O  O969  1  0.66160900  0.51355000  0.04087040  1.0
  O  O970  1  0.66160900  0.04087010  0.28397000  1.0
  O  O971  1  0.66160900  0.28397000  0.04087040  1.0
  O  O972  1  0.66160900  0.51355000  0.28397000  1.0
  O  O973  1  0.66160900  0.28397100  0.51355000  1.0
  O  O974  1  0.66161000  0.04086930  0.51355000  1.0
  O  O975  1  0.66277900  0.70768100  0.88473900  1.0
  O  O976  1  0.66277900  0.88474000  0.70767900  1.0
  O  O977  1  0.66278000  0.24480000  0.88473900  1.0
  O  O978  1  0.66278000  0.24480100  0.70767900  1.0
  O  O979  1  0.66278000  0.88473900  0.24479900  1.0
  O  O980  1  0.66278100  0.70767900  0.24479900  1.0
  O  O981  1  0.66353800  0.15032100  0.58230000  1.0
  O  O982  1  0.66353900  0.58230100  0.15032000  1.0
  O  O983  1  0.66353900  0.58230000  0.10384000  1.0
  O  O984  1  0.66353900  0.10384000  0.58230000  1.0
  O  O985  1  0.66354100  0.10384000  0.15032000  1.0
  O  O986  1  0.66354100  0.15031900  0.10384000  1.0
  O  O987  1  0.66516900  0.63161000  0.07595030  1.0
  O  O988  1  0.66517000  0.12727000  0.07595030  1.0
  O  O989  1  0.66517000  0.07595040  0.63161000  1.0
  O  O990  1  0.66517100  0.07595050  0.12726900  1.0
  O  O991  1  0.66517100  0.63161000  0.12726900  1.0
  O  O992  1  0.66517100  0.12726900  0.63161000  1.0
  O  O993  1  0.66846818  0.33472823  0.06322519  1.0
  O  O994  1  0.66851808  0.06309395  0.43394537  1.0
  O  O995  1  0.66851818  0.43393375  0.33445055  1.0
  O  O996  1  0.66931327  0.32065524  0.39419119  1.0
  O  O997  1  0.66932142  0.39417772  0.11583829  1.0
  O  O998  1  0.66952905  0.11591228  0.32070633  1.0
  O  O999  1  0.67096000  0.98306000  0.36815900  1.0
  O  O1000  1  0.67096000  0.47781900  0.98306000  1.0
  O  O1001  1  0.67096000  0.36815900  0.98306000  1.0
  O  O1002  1  0.67096000  0.36816000  0.47781900  1.0
  O  O1003  1  0.67096000  0.98305900  0.47781900  1.0
  O  O1004  1  0.67096100  0.47781900  0.36815900  1.0
  O  O1005  1  0.67175577  0.34844302  0.40962671  1.0
  O  O1006  1  0.67176339  0.40961240  0.07017282  1.0
  O  O1007  1  0.67190153  0.07028064  0.34858864  1.0
  O  O1008  1  0.67260266  0.94069370  0.32852955  1.0
  O  O1009  1  0.67260439  0.55817072  0.94069689  1.0
  O  O1010  1  0.67260671  0.32852454  0.55816845  1.0
  O  O1011  1  0.67467800  0.71256000  0.94354000  1.0
  O  O1012  1  0.67467900  0.16921900  0.94354000  1.0
  O  O1013  1  0.67467900  0.94354000  0.71255900  1.0
  O  O1014  1  0.67467900  0.94353900  0.16921900  1.0
  O  O1015  1  0.67468000  0.16922100  0.71255900  1.0
  O  O1016  1  0.67468000  0.71256000  0.16921900  1.0
  O  O1017  1  0.67469900  0.18393900  0.87362000  1.0
  O  O1018  1  0.67470000  0.76773800  0.87362000  1.0
  O  O1019  1  0.67470000  0.87361900  0.18394000  1.0
  O  O1020  1  0.67470000  0.87361900  0.76773900  1.0
  O  O1021  1  0.67470000  0.18394000  0.76773900  1.0
  O  O1022  1  0.67470000  0.76773900  0.18394000  1.0
  O  O1023  1  0.67546444  0.09240547  0.38775154  1.0
  O  O1024  1  0.67547603  0.38773807  0.34438045  1.0
  O  O1025  1  0.67570985  0.34433378  0.09257319  1.0
  O  O1026  1  0.67768060  0.83057695  0.86224439  1.0
  O  O1027  1  0.67836494  0.37121114  0.38572553  1.0
  O  O1028  1  0.67983202  0.34427907  0.43077126  1.0
  O  O1029  1  0.68167264  0.33599809  0.88621244  1.0
  O  O1030  1  0.68189429  0.59599601  0.33600377  1.0
  O  O1031  1  0.68189683  0.88610394  0.59599368  1.0
  O  O1032  1  0.68305900  0.05078020  0.46250000  1.0
  O  O1033  1  0.68306000  0.30365900  0.46250000  1.0
  O  O1034  1  0.68306000  0.05078070  0.30365900  1.0
  O  O1035  1  0.68306000  0.30366000  0.05077900  1.0
  O  O1036  1  0.68306000  0.46249900  0.05077900  1.0
  O  O1037  1  0.68306000  0.46250100  0.30365900  1.0
  O  O1038  1  0.68376900  0.00000000  0.50000000  1.0
  O  O1039  1  0.68376900  0.00000000  0.31623000  1.0
  O  O1040  1  0.68376900  0.31622900  0.00000000  1.0
  O  O1041  1  0.68376900  0.31623000  0.50000000  1.0
  O  O1042  1  0.68376900  0.50000000  0.31623000  1.0
  O  O1043  1  0.68377000  0.50000000  0.00000000  1.0
  O  O1044  1  0.68567991  0.91416272  0.10394625  1.0
  O  O1045  1  0.68568234  0.10393950  0.79621054  1.0
  O  O1046  1  0.68568323  0.79621449  0.91416113  1.0
  O  O1047  1  0.68600164  0.78286995  0.87884005  1.0
  O  O1048  1  0.68642932  0.12426548  0.91393407  1.0
  O  O1049  1  0.68642970  0.77536455  0.12427087  1.0
  O  O1050  1  0.68643022  0.91393390  0.77536945  1.0
  O  O1051  1  0.68918622  0.35260472  0.05263342  1.0
  O  O1052  1  0.68918776  0.05263190  0.40557434  1.0
  O  O1053  1  0.69021451  0.80604631  0.13254253  1.0
  O  O1054  1  0.69021577  0.13254081  0.87119455  1.0
  O  O1055  1  0.69434900  0.21518900  0.84955000  1.0
  O  O1056  1  0.69434900  0.74090900  0.84955000  1.0
  O  O1057  1  0.69434900  0.84954900  0.21519000  1.0
  O  O1058  1  0.69435000  0.21519000  0.74090900  1.0
  O  O1059  1  0.69435000  0.74090900  0.21519000  1.0
  O  O1060  1  0.69435000  0.84954900  0.74090900  1.0
  O  O1061  1  0.69500093  0.81696583  0.09297022  1.0
  O  O1062  1  0.69500512  0.09296551  0.89505888  1.0
  O  O1063  1  0.69500629  0.89505852  0.81696869  1.0
  O  O1064  1  0.69568567  0.89309416  0.33963164  1.0
  O  O1065  1  0.69568591  0.57158416  0.89309700  1.0
  O  O1066  1  0.69568794  0.33962970  0.57158199  1.0
  O  O1067  1  0.69606459  0.33476060  0.91735014  1.0
  O  O1068  1  0.69630590  0.14568794  0.77746327  1.0
  O  O1069  1  0.69630812  0.88053833  0.14569251  1.0
  O  O1070  1  0.69632302  0.55173238  0.33468097  1.0
  O  O1071  1  0.69632654  0.91726211  0.55173074  1.0
  O  O1072  1  0.69634000  0.31694000  0.53749900  1.0
  O  O1073  1  0.69634000  0.31694000  0.94922000  1.0
  O  O1074  1  0.69634000  0.53750000  0.94922000  1.0
  O  O1075  1  0.69634000  0.94921900  0.31693900  1.0
  O  O1076  1  0.69634100  0.53749900  0.31693900  1.0
  O  O1077  1  0.69634100  0.94921900  0.53749900  1.0
  O  O1078  1  0.70035418  0.86455805  0.79932461  1.0
  O  O1079  1  0.70069900  0.03027940  0.51478000  1.0
  O  O1080  1  0.70069900  0.03028070  0.25424000  1.0
  O  O1081  1  0.70069900  0.51478000  0.03027950  1.0
  O  O1082  1  0.70070000  0.25424100  0.03027950  1.0
  O  O1083  1  0.70070000  0.51478000  0.25424000  1.0
  O  O1084  1  0.70070100  0.25423900  0.51478000  1.0
  O  O1085  1  0.70332838  0.86690953  0.11102873  1.0
  O  O1086  1  0.70332867  0.11102280  0.81873413  1.0
  O  O1087  1  0.70333311  0.81873494  0.86690770  1.0
  O  O1088  1  0.70396900  0.19610900  0.70397000  1.0
  O  O1089  1  0.70396900  0.19611000  0.89595000  1.0
  O  O1090  1  0.70396900  0.70397000  0.19611000  1.0
  O  O1091  1  0.70396900  0.89594900  0.19611000  1.0
  O  O1092  1  0.70397000  0.89595000  0.70397000  1.0
  O  O1093  1  0.70397000  0.70396900  0.89595000  1.0
  O  O1094  1  0.70605458  0.93499021  0.48112954  1.0
  O  O1095  1  0.70605546  0.37782409  0.93499022  1.0
  O  O1096  1  0.70605679  0.48113714  0.37782020  1.0
  O  O1097  1  0.70767900  0.24480000  0.66278000  1.0
  O  O1098  1  0.70768000  0.24480000  0.88473900  1.0
  O  O1099  1  0.70768000  0.66277900  0.24479900  1.0
  O  O1100  1  0.70768000  0.88473900  0.66278000  1.0
  O  O1101  1  0.70768000  0.66277900  0.88473900  1.0
  O  O1102  1  0.70768000  0.88473900  0.24479900  1.0
  O  O1103  1  0.70842900  0.14377000  0.90330900  1.0
  O  O1104  1  0.70842900  0.14377000  0.74449000  1.0
  O  O1105  1  0.70842900  0.74449000  0.14376900  1.0
  O  O1106  1  0.70842900  0.90331000  0.14376900  1.0
  O  O1107  1  0.70843000  0.90330900  0.74449000  1.0
  O  O1108  1  0.70843000  0.74448900  0.90330900  1.0
  O  O1109  1  0.71023807  0.96086413  0.37619769  1.0
  O  O1110  1  0.71114159  0.45167964  0.96276662  1.0
  O  O1111  1  0.71114177  0.37440896  0.45168190  1.0
  O  O1112  1  0.71255900  0.16921900  0.94354000  1.0
  O  O1113  1  0.71255900  0.16922000  0.67467900  1.0
  O  O1114  1  0.71255900  0.94353900  0.67467900  1.0
  O  O1115  1  0.71255900  0.67467900  0.94354000  1.0
  O  O1116  1  0.71255900  0.67468000  0.16921900  1.0
  O  O1117  1  0.71256000  0.94353900  0.16921900  1.0
  O  O1118  1  0.71457190  0.47507384  0.91457620  1.0
  O  O1119  1  0.71457282  0.39577496  0.47507549  1.0
  O  O1120  1  0.71554792  0.91232146  0.39475214  1.0
  O  O1121  1  0.71602800  0.48645100  0.33839000  1.0
  O  O1122  1  0.71602900  0.33838900  0.95913000  1.0
  O  O1123  1  0.71603000  0.48645000  0.95913000  1.0
  O  O1124  1  0.71603000  0.33838900  0.48644900  1.0
  O  O1125  1  0.71603000  0.95912900  0.33839000  1.0
  O  O1126  1  0.71603000  0.95913000  0.48644900  1.0
  O  O1127  1  0.71833900  0.27490000  0.97215900  1.0
  O  O1128  1  0.71833900  0.53460000  0.27490000  1.0
  O  O1129  1  0.71833900  0.97215900  0.27490000  1.0
  O  O1130  1  0.71834000  0.27490000  0.53459900  1.0
  O  O1131  1  0.71834000  0.53460000  0.97215900  1.0
  O  O1132  1  0.71834100  0.97215900  0.53459900  1.0
  O  O1133  1  0.72212263  0.43134438  0.39070294  1.0
  O  O1134  1  0.72212636  0.95583184  0.43133676  1.0
  O  O1135  1  0.72212848  0.39070259  0.95583146  1.0
  O  O1136  1  0.72510000  0.02784020  0.28166100  1.0
  O  O1137  1  0.72510000  0.28166000  0.46540000  1.0
  O  O1138  1  0.72510000  0.02784040  0.46540000  1.0
  O  O1139  1  0.72510000  0.46540000  0.28166100  1.0
  O  O1140  1  0.72510100  0.28166000  0.02783940  1.0
  O  O1141  1  0.72510100  0.46540000  0.02783940  1.0
  O  O1142  1  0.72783900  0.21040000  0.65070000  1.0
  O  O1143  1  0.72784000  0.21040000  0.91106000  1.0
  O  O1144  1  0.72784000  0.65070000  0.21040000  1.0
  O  O1145  1  0.72784000  0.91105900  0.65070000  1.0
  O  O1146  1  0.72784000  0.65069900  0.91106000  1.0
  O  O1147  1  0.72784100  0.91105900  0.21040000  1.0
  O  O1148  1  0.72958837  0.33635231  0.23302362  1.0
  O  O1149  1  0.72958942  0.20103468  0.33635300  1.0
  O  O1150  1  0.73046606  0.90828157  0.45204486  1.0
  O  O1151  1  0.73046645  0.45205088  0.40920359  1.0
  O  O1152  1  0.73046816  0.40920486  0.90828120  1.0
  O  O1153  1  0.73429351  0.82189969  0.70121067  1.0
  O  O1154  1  0.73429448  0.24259352  0.82189357  1.0
  O  O1155  1  0.73429487  0.70121043  0.24259859  1.0
  O  O1156  1  0.73435943  0.92880749  0.40754286  1.0
  O  O1157  1  0.73475454  0.40632703  0.42722156  1.0
  O  O1158  1  0.73475554  0.42722010  0.93169524  1.0
  O  O1159  1  0.73749073  0.21468946  0.24668348  1.0
  O  O1160  1  0.73936416  0.17585866  0.24124971  1.0
  O  O1161  1  0.74090900  0.69435000  0.84955000  1.0
  O  O1162  1  0.74090900  0.84954900  0.69435000  1.0
  O  O1163  1  0.74090900  0.21518900  0.84955000  1.0
  O  O1164  1  0.74090900  0.84954900  0.21519000  1.0
  O  O1165  1  0.74091000  0.21519100  0.69435000  1.0
  O  O1166  1  0.74091000  0.69435000  0.21519000  1.0
  O  O1167  1  0.74215103  0.25276126  0.70833318  1.0
  O  O1168  1  0.74215226  0.70833869  0.79674724  1.0
  O  O1169  1  0.74215392  0.79674762  0.25276549  1.0
  O  O1170  1  0.74448900  0.14377000  0.90330900  1.0
  O  O1171  1  0.74448900  0.90331000  0.14376900  1.0
  O  O1172  1  0.74448900  0.90331000  0.70843000  1.0
  O  O1173  1  0.74449000  0.14376900  0.70843000  1.0
  O  O1174  1  0.74449000  0.70842900  0.14376900  1.0
  O  O1175  1  0.74449000  0.70842900  0.90330900  1.0
  O  O1176  1  0.74576000  0.29930000  0.96971900  1.0
  O  O1177  1  0.74576000  0.48521900  0.96971900  1.0
  O  O1178  1  0.74576000  0.29930000  0.48521900  1.0
  O  O1179  1  0.74576000  0.48522000  0.29929900  1.0
  O  O1180  1  0.74576000  0.96972000  0.48521900  1.0
  O  O1181  1  0.74576100  0.96971900  0.29929900  1.0
  O  O1182  1  0.74795113  0.66599249  0.83555373  1.0
  O  O1183  1  0.74795472  0.83555582  0.25050056  1.0
  O  O1184  1  0.74795500  0.25049544  0.66598828  1.0
  O  O1185  1  0.75110124  0.29120531  0.26153700  1.0
  O  O1186  1  0.75110212  0.19615207  0.29120754  1.0
  O  O1187  1  0.75254266  0.95149738  0.87574711  1.0
  O  O1188  1  0.75254329  0.92020779  0.95150228  1.0
  O  O1189  1  0.75473850  0.86137337  0.97436340  1.0
  O  O1190  1  0.75519900  0.29232000  0.11526000  1.0
  O  O1191  1  0.75520000  0.11525900  0.33722100  1.0
  O  O1192  1  0.75520000  0.11525900  0.29232000  1.0
  O  O1193  1  0.75520000  0.33722000  0.29232000  1.0
  O  O1194  1  0.75520000  0.29232000  0.33722100  1.0
  O  O1195  1  0.75520000  0.33722000  0.11526000  1.0
  O  O1196  1  0.75789130  0.33032424  0.25393718  1.0
  O  O1197  1  0.75789245  0.15784506  0.33032780  1.0
  O  O1198  1  0.76177154  0.77828485  0.69600284  1.0
  O  O1199  1  0.76177489  0.26393563  0.77827902  1.0
  O  O1200  1  0.76177565  0.69600416  0.26393930  1.0
  O  O1201  1  0.76243727  0.26449981  0.81703728  1.0
  O  O1202  1  0.76243962  0.81704330  0.65601822  1.0
  O  O1203  1  0.76244172  0.65601859  0.26450134  1.0
  O  O1204  1  0.76455545  0.16935572  0.26544827  1.0
  O  O1205  1  0.76773900  0.18394100  0.67470000  1.0
  O  O1206  1  0.76773900  0.18393900  0.87362000  1.0
  O  O1207  1  0.76773900  0.87361900  0.18394000  1.0
  O  O1208  1  0.76773900  0.87362000  0.67470000  1.0
  O  O1209  1  0.76774000  0.67469900  0.87362000  1.0
  O  O1210  1  0.76774000  0.67469900  0.18394000  1.0
  O  O1211  1  0.77328674  0.66631782  0.78979326  1.0
  O  O1212  1  0.77328747  0.27059905  0.66631262  1.0
  O  O1213  1  0.77329141  0.78979619  0.27060068  1.0
  O  O1214  1  0.77426426  0.98498490  0.85151484  1.0
  O  O1215  1  0.77426752  0.88923249  0.98498789  1.0
  O  O1216  1  0.77776003  0.89083511  0.93134913  1.0
  O  O1217  1  0.78446800  0.86079000  0.03781050  1.0
  O  O1218  1  0.78446900  0.03780890  0.86079000  1.0
  O  O1219  1  0.78446900  0.81693000  0.86079000  1.0
  O  O1220  1  0.78446900  0.86078900  0.81693000  1.0
  O  O1221  1  0.78447000  0.03780960  0.81693000  1.0
  O  O1222  1  0.78447000  0.81693000  0.03781050  1.0
  O  O1223  1  0.78480900  0.25909000  0.30565100  1.0
  O  O1224  1  0.78480900  0.30565000  0.25908900  1.0
  O  O1225  1  0.78480900  0.30565000  0.15045100  1.0
  O  O1226  1  0.78481000  0.25908900  0.15045100  1.0
  O  O1227  1  0.78481000  0.15044900  0.30565100  1.0
  O  O1228  1  0.78481000  0.15045000  0.25908900  1.0
  O  O1229  1  0.78959900  0.27216000  0.08894030  1.0
  O  O1230  1  0.78959900  0.34929900  0.08894030  1.0
  O  O1231  1  0.78959900  0.08893970  0.34930000  1.0
  O  O1232  1  0.78959900  0.08894080  0.27215900  1.0
  O  O1233  1  0.78960000  0.27216000  0.34930000  1.0
  O  O1234  1  0.78960000  0.34930000  0.27215900  1.0
  O  O1235  1  0.79219842  0.94442393  0.88379170  1.0
  O  O1236  1  0.79219947  0.87958142  0.94442794  1.0
  O  O1237  1  0.79552306  0.86423076  0.96800028  1.0
  O  O1238  1  0.80113000  0.83814900  0.98148900  1.0
  O  O1239  1  0.80113000  0.83815000  0.87922900  1.0
  O  O1240  1  0.80113000  0.87922900  0.98148900  1.0
  O  O1241  1  0.80113000  0.98149000  0.87922900  1.0
  O  O1242  1  0.80113000  0.87923000  0.83814900  1.0
  O  O1243  1  0.80113000  0.98149000  0.83814900  1.0
  O  O1244  1  0.80388900  0.10405000  0.29603100  1.0
  O  O1245  1  0.80388900  0.29603000  0.29603100  1.0
  O  O1246  1  0.80388900  0.29602900  0.10405100  1.0
  O  O1247  1  0.81437564  0.28074318  0.03125237  1.0
  O  O1248  1  0.81605800  0.23226000  0.12638000  1.0
  O  O1249  1  0.81605900  0.12638000  0.23225900  1.0
  O  O1250  1  0.81606000  0.32530000  0.12638000  1.0
  O  O1251  1  0.81606000  0.23225900  0.32530000  1.0
  O  O1252  1  0.81606000  0.32530000  0.23225900  1.0
  O  O1253  1  0.81606000  0.12638000  0.32530000  1.0
  O  O1254  1  0.81692900  0.78447000  0.86079000  1.0
  O  O1255  1  0.81692900  0.03780890  0.86079000  1.0
  O  O1256  1  0.81692900  0.86078900  0.78446900  1.0
  O  O1257  1  0.81692900  0.86079000  0.03781050  1.0
  O  O1258  1  0.81693000  0.03781040  0.78446900  1.0
  O  O1259  1  0.81693000  0.78447000  0.03781050  1.0
  O  O1260  1  0.82158958  0.27572239  0.35292649  1.0
  O  O1261  1  0.82158989  0.04976001  0.27572292  1.0
  O  O1262  1  0.82761900  0.42134000  0.37615900  1.0
  O  O1263  1  0.82761900  0.37616100  0.87487900  1.0
  O  O1264  1  0.82761900  0.37616000  0.42133900  1.0
  O  O1265  1  0.82762000  0.87487900  0.37615900  1.0
  O  O1266  1  0.82762000  0.42134000  0.87487900  1.0
  O  O1267  1  0.82762000  0.87488000  0.42133900  1.0
  O  O1268  1  0.82767916  0.00643289  0.27802678  1.0
  O  O1269  1  0.82767968  0.27802499  0.38786070  1.0
  O  O1270  1  0.82915500  0.01253100  0.82915600  1.0
  O  O1271  1  0.82915500  0.82915700  0.01253010  1.0
  O  O1272  1  0.82915700  0.82915600  0.82915600  1.0
  O  O1273  1  0.83077900  0.05645970  0.32532000  1.0
  O  O1274  1  0.83077900  0.28744100  0.05646040  1.0
  O  O1275  1  0.83077900  0.28744100  0.32532000  1.0
  O  O1276  1  0.83077900  0.32531900  0.05646040  1.0
  O  O1277  1  0.83077900  0.05646100  0.28743900  1.0
  O  O1278  1  0.83078000  0.32532100  0.28743900  1.0
  O  O1279  1  0.83814900  0.80113000  0.98148900  1.0
  O  O1280  1  0.83814900  0.98148900  0.80112900  1.0
  O  O1281  1  0.83814900  0.98149000  0.87922900  1.0
  O  O1282  1  0.83814900  0.80112900  0.87922900  1.0
  O  O1283  1  0.83814900  0.87922900  0.98148900  1.0
  O  O1284  1  0.83815000  0.87922900  0.80112900  1.0
  O  O1285  1  0.84692697  0.73407902  0.83754773  1.0
  O  O1286  1  0.84692991  0.08144234  0.73407663  1.0
  O  O1287  1  0.84934548  0.75322474  0.05963063  1.0
  O  O1288  1  0.84954900  0.21519000  0.74090900  1.0
  O  O1289  1  0.84954900  0.74090900  0.21519000  1.0
  O  O1290  1  0.84954900  0.21519100  0.69435000  1.0
  O  O1291  1  0.84954900  0.69435000  0.21519000  1.0
  O  O1292  1  0.84955000  0.69435000  0.74090900  1.0
  O  O1293  1  0.84955000  0.74090900  0.69435000  1.0
  O  O1294  1  0.84967900  0.33646000  0.89616000  1.0
  O  O1295  1  0.84967900  0.33646000  0.41770000  1.0
  O  O1296  1  0.84967900  0.41769900  0.33646000  1.0
  O  O1297  1  0.84967900  0.89615900  0.33646000  1.0
  O  O1298  1  0.84967900  0.89616000  0.41770000  1.0
  O  O1299  1  0.84968000  0.41769900  0.89616000  1.0
  O  O1300  1  0.85430978  0.22253514  0.11945965  1.0
  O  O1301  1  0.85568438  0.25527331  0.04403697  1.0
  O  O1302  1  0.85622900  0.25551100  0.29156900  1.0
  O  O1303  1  0.85623000  0.09669040  0.25550900  1.0
  O  O1304  1  0.85623000  0.29156900  0.25550900  1.0
  O  O1305  1  0.85623000  0.09668960  0.29156900  1.0
  O  O1306  1  0.85623000  0.25551000  0.09668950  1.0
  O  O1307  1  0.85623000  0.29157000  0.09668950  1.0
  O  O1308  1  0.85641992  0.26078904  0.00160798  1.0
  O  O1309  1  0.85960880  0.38652326  0.45140038  1.0
  O  O1310  1  0.86078900  0.03781040  0.78446900  1.0
  O  O1311  1  0.86078900  0.81693000  0.03781050  1.0
  O  O1312  1  0.86078900  0.78447000  0.03781050  1.0
  O  O1313  1  0.86079000  0.03780960  0.81693000  1.0
  O  O1314  1  0.86079000  0.78446900  0.81693000  1.0
  O  O1315  1  0.86079000  0.81692900  0.78446900  1.0
  O  O1316  1  0.86355852  0.79553450  0.44062098  1.0
  O  O1317  1  0.86356312  0.44061461  0.40029138  1.0
  O  O1318  1  0.86356330  0.40029206  0.79552805  1.0
  O  O1319  1  0.86423542  0.13544180  0.20067589  1.0
  O  O1320  1  0.86423866  0.20067290  0.29964904  1.0
  O  O1321  1  0.86462606  0.71188182  0.09336995  1.0
  O  O1322  1  0.86501892  0.02275401  0.25037063  1.0
  O  O1323  1  0.86501899  0.25036951  0.36185504  1.0
  O  O1324  1  0.86543747  0.64261058  0.30296496  1.0
  O  O1325  1  0.86543832  0.30297595  0.68898474  1.0
  O  O1326  1  0.86544030  0.68898280  0.64259963  1.0
  O  O1327  1  0.86569694  0.77249538  0.40385953  1.0
  O  O1328  1  0.86569849  0.45794552  0.77249366  1.0
  O  O1329  1  0.86966237  0.27950591  0.65906751  1.0
  O  O1330  1  0.86966563  0.65907108  0.69176547  1.0
  O  O1331  1  0.86966843  0.69177203  0.27947990  1.0
  O  O1332  1  0.87272900  0.36839000  0.92405000  1.0
  O  O1333  1  0.87272900  0.92405000  0.36839100  1.0
  O  O1334  1  0.87272900  0.33483000  0.36839100  1.0
  O  O1335  1  0.87273000  0.33482900  0.92405000  1.0
  O  O1336  1  0.87273000  0.92405000  0.33482900  1.0
  O  O1337  1  0.87273100  0.36838900  0.33482900  1.0
  O  O1338  1  0.87361900  0.18394100  0.67470000  1.0
  O  O1339  1  0.87361900  0.67469900  0.76773900  1.0
  O  O1340  1  0.87361900  0.76774000  0.67470000  1.0
  O  O1341  1  0.87362000  0.67469900  0.18394000  1.0
  O  O1342  1  0.87362000  0.76773900  0.18394000  1.0
  O  O1343  1  0.87362000  0.18394000  0.76773900  1.0
  O  O1344  1  0.87417813  0.79189659  0.87264608  1.0
  O  O1345  1  0.87421026  0.36651819  0.48954232  1.0
  O  O1346  1  0.87487800  0.37616000  0.82762000  1.0
  O  O1347  1  0.87487900  0.37616000  0.42133900  1.0
  O  O1348  1  0.87487900  0.42134000  0.37615900  1.0
  O  O1349  1  0.87487900  0.82762000  0.37615900  1.0
  O  O1350  1  0.87488000  0.42134000  0.82762000  1.0
  O  O1351  1  0.87488000  0.82762000  0.42133900  1.0
  O  O1352  1  0.87573156  0.08606599  0.22463113  1.0
  O  O1353  1  0.87573467  0.22463140  0.31356983  1.0
  O  O1354  1  0.87632800  0.37367000  0.37367100  1.0
  O  O1355  1  0.87632900  0.87633000  0.37367100  1.0
  O  O1356  1  0.87633000  0.37367100  0.87632900  1.0
  O  O1357  1  0.87922900  0.80113000  0.98148900  1.0
  O  O1358  1  0.87923000  0.83814900  0.98148900  1.0
  O  O1359  1  0.87923000  0.98148900  0.80112900  1.0
  O  O1360  1  0.87923000  0.98149000  0.83814900  1.0
  O  O1361  1  0.87923100  0.83814900  0.80112900  1.0
  O  O1362  1  0.87923100  0.80112900  0.83814900  1.0
  O  O1363  1  0.88049185  0.67425904  0.31952471  1.0
  O  O1364  1  0.88049920  0.62570382  0.67426265  1.0
  O  O1365  1  0.88050224  0.31953792  0.62569519  1.0
  O  O1366  1  0.88080344  0.33703069  0.46995169  1.0
  O  O1367  1  0.88298771  0.74568790  0.83329015  1.0
  O  O1368  1  0.88298952  0.03803060  0.74568910  1.0
  O  O1369  1  0.88464797  0.93855878  0.88735357  1.0
  O  O1370  1  0.88464934  0.78943187  0.93856297  1.0
  O  O1371  1  0.88473800  0.24480000  0.66278000  1.0
  O  O1372  1  0.88473900  0.66277900  0.24479900  1.0
  O  O1373  1  0.88473900  0.24480100  0.70767900  1.0
  O  O1374  1  0.88474000  0.70767900  0.24479900  1.0
  O  O1375  1  0.88474000  0.70767900  0.66278000  1.0
  O  O1376  1  0.88474000  0.66277900  0.70767900  1.0
  O  O1377  1  0.88505173  0.74781378  0.45906596  1.0
  O  O1378  1  0.88505754  0.45906166  0.40806994  1.0
  O  O1379  1  0.88505831  0.40806990  0.74780817  1.0
  O  O1380  1  0.88849494  0.79331307  0.40882467  1.0
  O  O1381  1  0.88849690  0.40936480  0.79331126  1.0
  O  O1382  1  0.88897518  0.18126466  0.13308824  1.0
  O  O1383  1  0.89298308  0.70552861  0.82632212  1.0
  O  O1384  1  0.89298695  0.07516113  0.70552898  1.0
  O  O1385  1  0.89433254  0.98143264  0.85755857  1.0
  O  O1386  1  0.89433539  0.76667170  0.98143571  1.0
  O  O1387  1  0.89594900  0.19610900  0.70397000  1.0
  O  O1388  1  0.89594900  0.70397000  0.19611000  1.0
  O  O1389  1  0.89595000  0.70396900  0.70397000  1.0
  O  O1390  1  0.89605779  0.20378721  0.08583505  1.0
  O  O1391  1  0.89615900  0.33646000  0.41770000  1.0
  O  O1392  1  0.89615900  0.41769900  0.33646000  1.0
  O  O1393  1  0.89615900  0.84968000  0.33646000  1.0
  O  O1394  1  0.89616000  0.41770000  0.84967900  1.0
  O  O1395  1  0.89616000  0.33646000  0.84967900  1.0
  O  O1396  1  0.89616000  0.84968000  0.41770000  1.0
  O  O1397  1  0.89691712  0.72287825  0.04935202  1.0
  O  O1398  1  0.89927900  0.26895624  0.66632204  1.0
  O  O1399  1  0.89928110  0.66632051  0.66544114  1.0
  O  O1400  1  0.89928254  0.66544573  0.26894071  1.0
  O  O1401  1  0.90272684  0.76920712  0.41152737  1.0
  O  O1402  1  0.90273681  0.41152361  0.41653596  1.0
  O  O1403  1  0.90273744  0.41653593  0.76920105  1.0
  O  O1404  1  0.90330800  0.14377000  0.74449000  1.0
  O  O1405  1  0.90330900  0.70843000  0.74449000  1.0
  O  O1406  1  0.90330900  0.14376900  0.70843000  1.0
  O  O1407  1  0.90330900  0.70842900  0.14376900  1.0
  O  O1408  1  0.90330900  0.74449000  0.14376900  1.0
  O  O1409  1  0.90330900  0.74449000  0.70843000  1.0
  O  O1410  1  0.90545732  0.63108945  0.31063970  1.0
  O  O1411  1  0.90546046  0.31064889  0.65281467  1.0
  O  O1412  1  0.90546348  0.65281408  0.63107327  1.0
  O  O1413  1  0.90607340  0.74594124  0.41526279  1.0
  O  O1414  1  0.90607561  0.43272040  0.74593958  1.0
  O  O1415  1  0.90703113  0.10494084  0.18303102  1.0
  O  O1416  1  0.90703535  0.18303132  0.30499597  1.0
  O  O1417  1  0.90935968  0.77526025  0.89033214  1.0
  O  O1418  1  0.90942769  0.28732548  0.65205731  1.0
  O  O1419  1  0.90942813  0.65119225  0.28730571  1.0
  O  O1420  1  0.90942874  0.65206142  0.65118915  1.0
  O  O1421  1  0.91105900  0.21040000  0.65070000  1.0
  O  O1422  1  0.91105900  0.65069900  0.72784000  1.0
  O  O1423  1  0.91105900  0.72783900  0.65070000  1.0
  O  O1424  1  0.91105900  0.21040000  0.72784000  1.0
  O  O1425  1  0.91106000  0.72783900  0.21040000  1.0
  O  O1426  1  0.91106000  0.65070000  0.21040000  1.0
  O  O1427  1  0.91458452  0.75197387  0.86494575  1.0
  O  O1428  1  0.92404900  0.87273000  0.33482900  1.0
  O  O1429  1  0.92404900  0.33482900  0.87273000  1.0
  O  O1430  1  0.92404900  0.33483000  0.36839100  1.0
  O  O1431  1  0.92404900  0.87273000  0.36839100  1.0
  O  O1432  1  0.92405000  0.36838900  0.33482900  1.0
  O  O1433  1  0.92405000  0.36839000  0.87273000  1.0
  O  O1434  1  0.92634807  0.94203611  0.87761505  1.0
  O  O1435  1  0.92635095  0.75399559  0.94203954  1.0
  O  O1436  1  0.94353900  0.16922100  0.71255900  1.0
  O  O1437  1  0.94353900  0.71256000  0.67467900  1.0
  O  O1438  1  0.94353900  0.67468000  0.71255900  1.0
  O  O1439  1  0.94354000  0.67468000  0.16921900  1.0
  O  O1440  1  0.94354000  0.16922000  0.67467900  1.0
  O  O1441  1  0.94354000  0.71256000  0.16921900  1.0
  O  O1442  1  0.94921800  0.69634100  0.31693900  1.0
  O  O1443  1  0.94921900  0.31694000  0.69634000  1.0
  O  O1444  1  0.94921900  0.31694000  0.53749900  1.0
  O  O1445  1  0.94921900  0.53750000  0.69634000  1.0
  O  O1446  1  0.94921900  0.69634000  0.53749900  1.0
  O  O1447  1  0.94922000  0.53749900  0.31693900  1.0
  O  O1448  1  0.95912900  0.48645100  0.71602900  1.0
  O  O1449  1  0.95912900  0.71603100  0.48644900  1.0
  O  O1450  1  0.95912900  0.48645100  0.33839000  1.0
  O  O1451  1  0.95912900  0.71602900  0.33839000  1.0
  O  O1452  1  0.95913000  0.33838900  0.48644900  1.0
  O  O1453  1  0.95913000  0.33839000  0.71602900  1.0
  O  O1454  1  0.96218900  0.13921000  0.18307100  1.0
  O  O1455  1  0.96218900  0.21553000  0.13921100  1.0
  O  O1456  1  0.96218900  0.21553000  0.18307100  1.0
  O  O1457  1  0.96219000  0.18306900  0.13921100  1.0
  O  O1458  1  0.96219000  0.13921000  0.21552900  1.0
  O  O1459  1  0.96219000  0.18307000  0.21552900  1.0
  O  O1460  1  0.96971900  0.48522000  0.29929900  1.0
  O  O1461  1  0.96971900  0.29930000  0.48521900  1.0
  O  O1462  1  0.96971900  0.29930000  0.74576100  1.0
  O  O1463  1  0.96972000  0.48521900  0.74576100  1.0
  O  O1464  1  0.96972000  0.74576000  0.48521900  1.0
  O  O1465  1  0.96972000  0.74575900  0.29929900  1.0
  O  O1466  1  0.97215900  0.27489900  0.71834000  1.0
  O  O1467  1  0.97215900  0.27490000  0.53459900  1.0
  O  O1468  1  0.97215900  0.53460000  0.27490000  1.0
  O  O1469  1  0.97215900  0.71834000  0.27490000  1.0
  O  O1470  1  0.97216000  0.71833900  0.53459900  1.0
  O  O1471  1  0.97216000  0.53459900  0.71834000  1.0
  O  O1472  1  0.97528800  0.64465000  0.53087000  1.0
  O  O1473  1  0.97528900  0.34919000  0.53087000  1.0
  O  O1474  1  0.97528900  0.53087000  0.64464900  1.0
  O  O1475  1  0.97529000  0.53086900  0.34918900  1.0
  O  O1476  1  0.97529000  0.64465100  0.34918900  1.0
  O  O1477  1  0.97529000  0.34919000  0.64464900  1.0
  O  O1478  1  0.98149000  0.83814900  0.80112900  1.0
  O  O1479  1  0.98149000  0.83815000  0.87922900  1.0
  O  O1480  1  0.98149000  0.87923000  0.83814900  1.0
  O  O1481  1  0.98149000  0.80112900  0.87922900  1.0
  O  O1482  1  0.98149000  0.87922900  0.80112900  1.0
  O  O1483  1  0.98149100  0.80112900  0.83814900  1.0
  O  O1484  1  0.98305900  0.36815900  0.67096000  1.0
  O  O1485  1  0.98305900  0.47781900  0.67096000  1.0
  O  O1486  1  0.98305900  0.67096000  0.36815900  1.0
  O  O1487  1  0.98305900  0.67096100  0.47781900  1.0
  O  O1488  1  0.98306000  0.47781900  0.36815900  1.0
  O  O1489  1  0.98306000  0.36816000  0.47781900  1.0
  O  O1490  1  0.98747000  0.17084300  0.17084300  1.0
  F  F1  1  0.00000000  0.25045900  0.50000000  1.0
  F  F2  1  0.00000000  0.50000000  0.25045900  1.0
  F  F3  1  0.01611010  0.86184900  0.76018900  1.0
  F  F4  1  0.06696000  0.48356000  0.62144000  1.0
  F  F5  1  0.06696020  0.62144000  0.32804100  1.0
  F  F6  1  0.07798970  0.23371000  0.84375000  1.0
  F  F7  1  0.07798970  0.23371000  0.34455100  1.0
  F  F8  1  0.07799020  0.84374900  0.23371000  1.0
  F  F9  1  0.09631010  0.09631030  0.70026900  1.0
  F  F10  1  0.09631010  0.60711000  0.70026900  1.0
  F  F11  1  0.13814900  0.23981000  0.13815000  1.0
  F  F12  1  0.15624900  0.92200900  0.65545000  1.0
  F  F13  1  0.15625000  0.65544900  0.76628900  1.0
  F  F14  1  0.16762900  0.58237000  0.16763100  1.0
  F  F15  1  0.23370900  0.84374900  0.34455100  1.0
  F  F16  1  0.23371000  0.34454900  0.84375000  1.0
  F  F17  1  0.23981000  0.98389000  0.13815000  1.0
  F  F18  1  0.23981100  0.13814900  0.98389000  1.0
  F  F19  1  0.25045900  0.00000000  0.50000000  1.0
  F  F20  1  0.25045900  0.50000000  0.00000000  1.0
  F  F21  1  0.25046000  1.00000000  0.74954000  1.0
  F  F22  1  0.25046000  0.74954000  0.00000000  1.0
  F  F23  1  0.25572000  0.70641900  0.83144000  1.0
  F  F24  1  0.29357900  0.29357900  0.16856100  1.0
  F  F25  1  0.29358000  0.16856100  0.74427900  1.0
  F  F26  1  0.29358000  0.74427900  0.16856100  1.0
  F  F27  1  0.32803900  0.62144000  0.48356100  1.0
  F  F28  1  0.34455000  0.07799080  0.23371000  1.0
  F  F29  1  0.37856000  0.51644000  0.67196000  1.0
  F  F30  1  0.39288900  0.29973000  0.90368900  1.0
  F  F31  1  0.39289000  0.90368900  0.29973000  1.0
  F  F32  1  0.41762900  0.83237000  0.83237000  1.0
  F  F33  1  0.48355800  0.32804100  0.62144000  1.0
  F  F34  1  0.49999900  1.00000000  0.74954000  1.0
  F  F35  1  0.51643900  0.67196000  0.37856100  1.0
  F  F36  1  0.51643900  0.93303900  0.37856100  1.0
  F  F37  1  0.51644000  0.37856000  0.93303900  1.0
  F  F38  1  0.51644000  0.67195900  0.93303900  1.0
  F  F39  1  0.58236900  0.58237000  0.16763100  1.0
  F  F40  1  0.60710900  0.09631060  0.09630950  1.0
  F  F41  1  0.62143900  0.06696020  0.32804100  1.0
  F  F42  1  0.62143900  0.48356100  0.06695960  1.0
  F  F43  1  0.62144000  0.32804000  0.06695960  1.0
  F  F44  1  0.65544900  0.76628900  0.15625100  1.0
  F  F45  1  0.65544900  0.15625000  0.76628900  1.0
  F  F46  1  0.67195900  0.93304000  0.51644000  1.0
  F  F47  1  0.67195900  0.37856000  0.51644000  1.0
  F  F48  1  0.70027000  0.09630940  0.60710900  1.0
  F  F49  1  0.70642000  0.70641900  0.83144000  1.0
  F  F50  1  0.74954000  0.50000000  0.25045900  1.0
  F  F51  1  0.76019000  0.86184900  0.86185000  1.0
  F  F52  1  0.76628900  0.15625000  0.92201000  1.0
  F  F53  1  0.76628900  0.92201000  0.15625100  1.0
  F  F54  1  0.76628900  0.92200900  0.65545000  1.0
  F  F55  1  0.83144000  0.25572000  0.70642000  1.0
  F  F56  1  0.83144000  0.70642000  0.25571900  1.0
  F  F57  1  0.83236900  0.41762900  0.41763000  1.0
  F  F58  1  0.84374800  0.23371000  0.34455100  1.0
  F  F59  1  0.84374900  0.07799080  0.23371000  1.0
  F  F60  1  0.84374900  0.34455000  0.07799090  1.0
  F  F61  1  0.86184900  0.76019000  0.01611040  1.0
  F  F62  1  0.86184900  0.01611020  0.76018900  1.0
  F  F63  1  0.90368900  0.90369000  0.39289000  1.0
  F  F64  1  0.90368900  0.39289100  0.90368900  1.0
  F  F65  1  0.92201100  0.65544900  0.76628900  1.0
  F  F66  1  0.93304000  0.37855900  0.67196000  1.0
  F  F67  1  0.93304000  0.67196000  0.51644000  1.0
  F  F68  1  0.98388900  0.13815000  0.23981000  1.0
