data_I
_chemical_name_common  '/home/dharunkraja/Desktop/D/MOFSNN_D/CGCNN_MT/data/WS24/clean_cifs/mil-101-nh2'
_cell_length_a 62.83990
_cell_length_b 62.83990
_cell_length_c 62.83990
_cell_angle_alpha 60.00000
_cell_angle_beta  60.00000
_cell_angle_gamma 60.00000
_space_group_name_H-M_alt      'P 1'


loop_
_space_group_symop_operation_xyz
  'x, y, z'

loop_
_atom_site_label
_atom_site_fract_x
_atom_site_fract_y
_atom_site_fract_z
_atom_site_type_symbol
F        2e-08      0.5 0.250459     F
O      2.7e-07 0.500001 0.683769     O
Cr     3.9e-07 0.499999 0.284101    Cr
Cr     6.2e-07 0.284099      0.5    Cr
O      6.3e-07 0.683769      0.5     O
C     0.00347972  0.46564  0.37392     C
C     0.00347984 0.465639 0.656961     C
C     0.00348023 0.373919  0.46564     C
C     0.00348023 0.656959  0.46564     C
C     0.00348042  0.65696  0.37392     C
C     0.00348054 0.373919 0.656961     C
C     0.00351934 0.441661 0.658699     C
C     0.00351972   0.6587 0.441659     C
C     0.00352003 0.396121 0.441659     C
C     0.00352027  0.44166 0.396119     C
C     0.0035207   0.6587 0.396119     C
C     0.00352101 0.396119 0.658699     C
C     0.00743937  0.85158 0.301981     C
C     0.0074396 0.301981 0.851579     C
C     0.00744006 0.338999 0.301981     C
C     0.00744026  0.30198    0.339     C
C     0.00744068 0.851579    0.339     C
C     0.00744072    0.339 0.851579     C
Cr    0.0104293  0.79411  0.84773    Cr
Cr    0.0104302 0.847729 0.794109    Cr
Cr    0.0104308 0.847729  0.84773    Cr
O     0.0125307 0.829156 0.829156     O
F     0.0161101 0.861849 0.760189     F
H     0.01669392 0.44243648 0.767784     H
H     0.01669434 0.76778493 0.44243971     H
H     0.0166944 0.76778299 0.273082     H
H     0.01669508 0.44243739 0.27308146     H
H     0.01669515 0.27308051 0.76778332     H
H     0.01669694 0.2730758 0.4424414     H
O     0.0169392  0.52218  0.63184     O
O     0.0169395 0.631839  0.52218     O
O     0.0169399  0.32904  0.52218     O
O     0.0169399 0.631839 0.329041     O
O      0.01694 0.522179 0.329041     O
O     0.0169403 0.329039  0.63184     O
H     0.0185077 0.845927 0.350608     H
H     0.0185085 0.350609 0.845925     H
H     0.0185092 0.284956 0.350608     H
O     0.0185094 0.120771 0.198869     O
O     0.0185096  0.19887 0.120769     O
O     0.0185104  0.19887  0.16185     O
O     0.0185106 0.120769  0.16185     O
O     0.0185106  0.16185 0.198869     O
O     0.018511  0.16185 0.120769     O
C     0.0203899  0.68671  0.14359     C
C     0.0203903  0.64931  0.68671     C
C     0.0203904 0.312751 0.854109     C
C     0.0203906 0.143589  0.68671     C
C     0.0203906 0.143591 0.649309     C
C     0.0203906 0.649309  0.14359     C
C     0.0203906  0.68671 0.649309     C
C     0.0203909  0.31275 0.312749     C
C     0.0203911 0.854109 0.312749     C
C     0.0212396  0.33508   0.5603     C
C     0.0212397   0.5603 0.335081     C
C     0.0212399  0.33508  0.58338     C
C     0.0212402  0.58338   0.5603     C
C     0.0212405 0.583379 0.335081     C
C     0.0212406 0.560299  0.58338     C
H     0.02167425 0.21915049 0.54469801     H
H     0.02167493 0.54469545 0.21915082     H
H     0.02167532 0.71447613 0.21915009     H
H     0.02167586 0.21914997 0.71447821     H
H     0.02167588 0.71447826 0.54469692     H
H     0.02167671 0.54469829 0.71447883     H
N     0.02223754 0.280021 0.844259     N
N     0.02223794 0.84426111 0.28002034     N
N     0.02223945 0.35347989 0.28002145     N
C     0.0229699 0.109309  0.18386     C
C     0.0229704 0.183859 0.109309     C
C     0.0229705  0.18386  0.18386     C
O     0.0247096  0.46913 0.650809     O
O      0.02471 0.650809  0.46913     O
O     0.0247105 0.355349  0.46913     O
O     0.0247105  0.35535 0.650809     O
O     0.0247106 0.469129  0.35535     O
O     0.024711 0.650809  0.35535     O
H     0.02492803 0.26197654 0.85810949     H
H     0.02492811 0.85811222 0.26197626     H
H     0.02493053 0.35498338 0.26197678     H
C     0.0255393   0.3958   0.4184     C
C     0.0255399 0.418399 0.395799     C
C     0.0255403  0.66026   0.4184     C
C     0.0255406 0.395799  0.66026     C
C     0.0255406  0.66026 0.395799     C
C     0.0255408 0.418399  0.66026     C
O     0.0278391   0.4654 0.281661     O
O     0.0278393  0.28166   0.4654     O
O     0.0278399 0.725099 0.281661     O
O     0.0278401 0.725099   0.4654     O
O     0.0278405 0.281659 0.725099     O
O     0.0278405 0.465399 0.725099     O
O     0.030279  0.51478  0.25424     O
O     0.0302791  0.25424   0.7007     O
O     0.0302795 0.700699  0.25424     O
O     0.0302797 0.254239  0.51478     O
O     0.0302802 0.514779   0.7007     O
O     0.0302802   0.7007  0.51478     O
H     0.03048465 0.28183415 0.82499807     H
H     0.03048584 0.82500038 0.28183264     H
H     0.03048706 0.36267967 0.28183514     H
H     0.0306384  0.14111 0.630632     H
H     0.0306386  0.63063 0.141111     H
H     0.0306391 0.697618 0.630632     H
C     0.0342409 0.661839 0.661839     C
C     0.034241 0.661839  0.14208     C
C     0.0342411  0.14208 0.661839     C
N     0.03428018 0.70018417 0.14029126     N
N     0.03428134 0.62524559 0.700185     N
N     0.03428281 0.14028736 0.70018382     N
Cr    0.0356292  0.49019  0.65383    Cr
Cr    0.0356302 0.653829 0.490189    Cr
Cr    0.0356303 0.490189  0.32035    Cr
Cr    0.0356304  0.65383  0.32035    Cr
Cr    0.0356306 0.320349 0.490189    Cr
Cr    0.0356306 0.320349  0.65383    Cr
N     0.03590147 0.44053927 0.76064285     N
N     0.03590212 0.76064138 0.26291353     N
N     0.03590232 0.76064322 0.44054115     N
N     0.03590281 0.44053969 0.26291304     N
N     0.03590302 0.26291271 0.76064124     N
N     0.03590527 0.26290932 0.44054182     N
H     0.03628442 0.13905678 0.23542391     H
H     0.03628584 0.08923472 0.13905542     H
H     0.03628829 0.1390522 0.0892337     H
H     0.03653346 0.69869936 0.15602162     H
H     0.03653581 0.60874557 0.69870147     H
H     0.03653788 0.15601642 0.69869959     H
O     0.037809  0.78447  0.86079     O
O     0.0378092  0.81693  0.86079     O
O     0.0378096 0.860789 0.784469     O
O     0.0378099 0.860789  0.81693     O
O     0.0378108 0.816929 0.784469     O
O     0.0378109 0.784469  0.81693     O
H     0.0390283 0.585493 0.330611     H
H     0.0390286 0.330611 0.585493     H
H     0.0390286 0.544867 0.585493     H
N     0.04038317 0.21663228 0.53215838     N
N     0.04038412 0.53215646 0.21663229     N
N     0.04038422 0.71082467 0.21663226     N
N     0.04038495 0.21663226 0.71082597     N
N     0.04038495 0.71082621 0.53215772     N
N     0.04038553 0.53215857 0.71082661     N
O     0.0408696  0.66161  0.51355     O
O     0.0408697  0.51355  0.28397     O
O     0.0408697 0.661609  0.28397     O
O     0.0408698 0.283971  0.51355     O
O     0.0408698  0.51355 0.661609     O
O      0.04087  0.28397 0.661609     O
H     0.04139954 0.45224965 0.76232237     H
H     0.04140083 0.76231936 0.24402594     H
H     0.04140169 0.4522499 0.24402514     H
H     0.04140212 0.76232173 0.45225084     H
H     0.04140239 0.24402517 0.76231864     H
H     0.04140648 0.24402134 0.45225097     H
H     0.0421922 0.417893 0.378475     H
H     0.0421922 0.661439 0.378475     H
H     0.0421924 0.417892 0.661439     H
H     0.04229364 0.71162814 0.12212269     H
H     0.04229417 0.62395886 0.71162831     H
H     0.04229591 0.12211797 0.71162695     H
N     0.04437775 0.32926726 0.54056286     N
N     0.04437882 0.54056345 0.3292691     N
N     0.04437901 0.58579183 0.54056429     N
C     0.0452602 0.183199  0.08834     C
C     0.0452604   0.1832 0.183199     C
C     0.0452606 0.0883392 0.183199     C
H     0.04558357 0.21394577 0.51525669     H
H     0.0455848 0.7252122 0.21394611     H
H     0.04558528 0.51525472 0.21394544     H
H     0.04558624 0.21394623 0.72521293     H
H     0.04558631 0.72521353 0.51525597     H
H     0.04558683 0.51525694 0.72521404     H
C     0.0456988   0.4524  0.70924     C
C     0.045699  0.70924   0.4524     C
C     0.0456991   0.4524 0.292661     C
C     0.0456992  0.29266  0.70924     C
C     0.0456996  0.29266   0.4524     C
C     0.0456998 0.709239 0.292661     C
C     0.0457696  0.67735  0.26081     C
C     0.0457697 0.260811 0.677349     C
C     0.0457697  0.51607  0.26081     C
C     0.0457699  0.26081  0.51607     C
C     0.0457704  0.67735  0.51607     C
C     0.0457713 0.516069 0.677349     C
N     0.04702464 0.37343516 0.41775794     N
N     0.04702533 0.66178208 0.41775799     N
N     0.04702622 0.3734346 0.66178316     N
C     0.0478997 0.305299   0.3053     C
C     0.0478998 0.305301 0.841499     C
C     0.0479002 0.841499   0.3053     C
C     0.0479192  0.79374   0.8646     C
C     0.0479201   0.8646 0.793739     C
C     0.0479206 0.793739 0.793739     C
H     0.04818131 0.35997111 0.41232321     H
H     0.04818196 0.6795244 0.41232256     H
H     0.04818238 0.35997172 0.67952583     H
N     0.04932487 0.13947994 0.217158     N
N     0.04932614 0.09403657 0.13947939     N
N     0.04932799 0.13947657 0.09403605     N
H     0.0505554 0.0916438 0.213109     H
H     0.0505556 0.213108 0.0916436     H
H     0.0505557 0.213108 0.144693     H
O     0.0507795   0.4625 0.683059     O
O     0.0507799 0.462501 0.303659     O
O      0.05078  0.30366 0.683059     O
O      0.05078 0.683059   0.4625     O
O     0.0507803 0.303659   0.4625     O
O     0.0507809 0.683059 0.303659     O
H     0.05143497 0.34378753 0.52568135     H
H     0.0514355 0.52568243 0.3437899     H
H     0.05143782 0.57909572 0.52568248     H
H     0.05442265 0.31045062 0.54085604     H
H     0.0544228 0.5942706 0.54085884     H
H     0.05442496 0.54085659 0.31045254     H
C     0.0544487  0.74871  0.42213     C
C     0.0544496 0.422129 0.748709     C
C     0.0544496 0.748709  0.27471     C
C     0.0544498  0.27471 0.748709     C
C     0.0544501 0.422129  0.27471     C
C     0.0544502 0.274709  0.42213     C
H     0.05486339 0.88879246 0.82456469     H
H     0.05486376 0.82456331 0.88879515     H
H     0.05486519 0.73177526 0.82456411     H
H     0.05585748 0.12440277 0.21093179     H
H     0.05585916 0.10880726 0.12440261     H
H     0.0558614 0.12439958 0.10880642     H
O     0.056459 0.287441 0.830779     O
O     0.0564592 0.287441  0.32532     O
O     0.0564592  0.83078 0.287439     O
O     0.0564595 0.325321 0.287439     O
O     0.0564597 0.830779  0.32532     O
O     0.0564598  0.32532 0.830779     O
C     0.0581296 0.160451 0.200869     C
C     0.0581296 0.200869 0.160451     C
C     0.0581301 0.0805493 0.160451     C
C     0.0581306 0.160449 0.0805499     C
C     0.0581306 0.200869 0.0805499     C
C     0.058131 0.0805494 0.200869     C
C     0.0586594  0.21686  0.53806     C
C     0.0586597 0.538059  0.21686     C
C     0.0586601  0.68642  0.53806     C
C     0.0586602  0.21686  0.68642     C
C     0.0586602 0.686419  0.21686     C
C     0.0586604  0.53806  0.68642     C
H     0.0609101 0.784211 0.263414     H
H     0.0609109 0.263413  0.78421     H
H     0.060911 0.391465 0.263414     H
H     0.0609112 0.391465  0.78421     H
H     0.0609113 0.263413 0.391465     H
H     0.0609117 0.784209 0.391465     H
H     0.06174844 0.37036869 0.4227181     H
H     0.06174894 0.64516478 0.4227189     H
H     0.06175073 0.37036729 0.6451663     H
C     0.0620093  0.24017  0.66791     C
C     0.0620093  0.52991  0.66791     C
C     0.0620097  0.66791  0.52991     C
C     0.0620099 0.667909  0.24017     C
C     0.0620106  0.24017  0.52991     C
C     0.0620108 0.529909  0.24017     C
C     0.0620796 0.428141  0.72142     C
C     0.0620797  0.28836  0.72142     C
C     0.0620797  0.72142 0.288359     C
C     0.0620805 0.721419 0.428139     C
C     0.0620806  0.28836 0.428139     C
C     0.0620806  0.42814 0.288359     C
C     0.0629094 0.129869  0.65361     C
C     0.0629099 0.653609 0.129869     C
C     0.0629099 0.653609  0.65361     C
C     0.0660592  0.76362 0.397019     C
C     0.0660596  0.39702 0.763619     C
C     0.0660599   0.2733 0.397019     C
C     0.0660603 0.397019 0.273299     C
C     0.0660611 0.273299 0.763619     C
C     0.0660612 0.763619 0.273299     C
F      0.06696  0.48356  0.62144     F
F     0.0669602  0.62144 0.328041     F
C     0.0675099 0.876791 0.777849     C
C     0.0675106 0.777849 0.777849     C
C     0.0675106 0.777849 0.876789     C
H      0.06763 0.626369 0.262173     H
H     0.0676302 0.262172 0.626369     H
H     0.0676304 0.626369 0.543827     H
H     0.0676307 0.543827 0.626369     H
H     0.0676308 0.262173 0.543827     H
H     0.0676309 0.543827 0.262173     H
N     0.06906774 0.87444606 0.8169109     N
N     0.06906814 0.81691059 0.87444803     N
N     0.06906946 0.73957106 0.81691072     N
H     0.0715242 0.875729 0.741849     H
H     0.0715245 0.741848 0.875729     H
H     0.0715252 0.810896 0.741849     H
C     0.0726491 0.543671  0.64041     C
C     0.0726499  0.24327 0.543669     C
C     0.0726499 0.640409 0.543669     C
C      0.07265  0.54367 0.243269     C
C     0.0726503  0.24327  0.64041     C
C     0.0726504  0.64041 0.243269     C
C     0.0745694  0.67921  0.55243     C
C     0.0745698 0.552429  0.67921     C
C     0.0745702  0.55243  0.19379     C
C     0.0745703  0.19379  0.67921     C
C     0.0745704  0.19379  0.55243     C
C     0.0745707 0.679209  0.19379     C
H     0.07584253 0.85611359 0.82894156     H
H     0.07584327 0.82894208 0.85611628     H
H     0.07584486 0.73909679 0.82894165     H
H     0.0758769 0.555188 0.693933     H
H     0.0758774 0.175001 0.693933     H
H     0.0758774 0.693932 0.555188     H
H     0.0758778 0.693931 0.175002     H
H     0.0758785 0.555187 0.175002     H
H     0.0758786 0.175001 0.555188     H
O     0.0759491  0.66517  0.63161     O
O     0.0759494  0.63161  0.66517     O
O     0.0759496 0.127269  0.63161     O
O     0.0759496  0.63161 0.127269     O
O      0.07595  0.66517 0.127269     O
O     0.0759503 0.127269  0.66517     O
F     0.0779897  0.23371 0.344551     F
F     0.0779897  0.23371  0.84375     F
F     0.0779902 0.843749  0.23371     F
C      0.07881  0.30271  0.70963     C
C     0.0788101  0.70963  0.40885     C
C     0.0788102  0.40885  0.70963     C
C     0.0788103  0.70963  0.30271     C
C     0.0788105 0.302709  0.40885     C
C     0.0788108 0.408849  0.30271     C
C     0.0791195 0.790279 0.879839     C
C     0.0791195 0.879839 0.790279     C
C     0.0791196 0.750759 0.879839     C
C     0.0791196 0.879839  0.75076     C
C     0.0791203  0.75076 0.790279     C
C     0.0791203  0.79028  0.75076     C
C     0.0805493 0.0581297 0.160451     C
C     0.0805497 0.160449 0.0581306     C
C     0.0805498 0.200869 0.0581306     C
C      0.08055 0.160451 0.200869     C
C      0.08055 0.200869 0.160451     C
C     0.0805503 0.0581297 0.200869     C
H     0.083591 0.413212 0.689306     H
H     0.0835916  0.31389 0.413212     H
H     0.0835917 0.689305 0.413212     H
H     0.0835918 0.413211 0.313891     H
H     0.0835924 0.689305 0.313891     H
H     0.0835925  0.31389 0.689306     H
C     0.084999  0.28536 0.378861     C
C     0.084999  0.75078  0.28536     C
C     0.0849994  0.75078 0.378861     C
C     0.0849997 0.378859  0.28536     C
C     0.0849998 0.285359 0.750779     C
C        0.085  0.37886 0.750779     C
C     0.0883397   0.1832 0.183199     C
C     0.0883405 0.0452602 0.183199     C
C     0.088341 0.183199 0.0452595     C
C     0.0886992  0.19592   0.6523     C
C     0.0886992  0.56308 0.195921     C
C     0.0886995  0.19592 0.563079     C
C     0.0886997 0.652299 0.195921     C
C       0.0887  0.56308   0.6523     C
C     0.0887008   0.6523 0.563079     C
O     0.0889388   0.7896   0.3493     O
O     0.0889396   0.3493 0.789599     O
O     0.0889397  0.27216   0.3493     O
O     0.0889398  0.27216 0.789599     O
O     0.0889399   0.3493 0.272159     O
O     0.0889403 0.789599 0.272159     O
C     0.0892198   0.3022 0.383681     C
C      0.08922 0.302199   0.7249     C
C      0.08922 0.724899 0.383681     C
C     0.0892202 0.383679   0.7249     C
C     0.0892207 0.724899 0.302199     C
C     0.0892208  0.38368 0.302199     C
C     0.0895491  0.22101  0.55665     C
C     0.0895491 0.221011 0.632789     C
C     0.0895492  0.63279  0.22101     C
C     0.0895493  0.55665  0.22101     C
C     0.0895495 0.632789  0.55665     C
C     0.0895497  0.55665 0.632789     C
H     0.0916421 0.144693 0.213109     H
H     0.0916425 0.0505548 0.213109     H
H     0.0916427 0.213108 0.144693     H
H     0.0916429 0.0505544 0.144693     H
H     0.0916429 0.144693 0.0505549     H
H     0.091643 0.213108 0.0505549     H
Cr    0.0931991 0.823719  0.32188    Cr
Cr    0.0931993 0.321879  0.82372    Cr
Cr    0.0931993 0.321881   0.2612    Cr
Cr    0.0931997   0.2612  0.82372    Cr
Cr    0.0932002 0.261199  0.32188    Cr
Cr    0.0932005 0.823719   0.2612    Cr
H     0.09338422 0.30463951 0.89152825     H
H     0.09338426 0.21044664 0.30463962     H
H     0.09338432 0.89152898 0.30463941     H
F     0.0963101 0.0963103 0.700269     F
F     0.0963101  0.60711 0.700269     F
O     0.0966897 0.255511 0.291569     O
O     0.0966899 0.255511 0.856229     O
O     0.0966901  0.29157 0.856229     O
O     0.0966903  0.85623 0.291569     O
O     0.0966905 0.291569 0.255509     O
O     0.096691 0.856229 0.255509     O
C     0.0968194   0.2835   0.3539     C
C     0.0968195 0.765779   0.3539     C
C     0.0968198 0.353899   0.2835     C
C     0.0968203 0.353899 0.765779     C
C     0.0968206 0.765779   0.2835     C
C     0.096821   0.2835 0.765779     C
H     0.100356  0.31447 0.717124     H
H     0.100356 0.368048 0.717124     H
H     0.100356 0.717125  0.31447     H
H     0.100356 0.717125 0.368048     H
H     0.100357 0.314471 0.368048     H
H     0.100357 0.368048  0.31447     H
C       0.1013 0.774699 0.888559     C
C     0.101301 0.735439 0.774699     C
C     0.101301  0.73544 0.888559     C
C     0.101301   0.7747 0.735439     C
C     0.101301 0.888559 0.774699     C
C     0.101301 0.888561 0.735439     C
C      0.10164  0.26664  0.86508     C
C      0.10164  0.86508  0.26664     C
C     0.101641 0.266639  0.26664     C
H     0.102401 0.223104 0.613114     H
H     0.102402 0.613114 0.223103     H
H     0.102402 0.613115  0.56138     H
H     0.102403 0.223103  0.56138     H
H     0.102403  0.56138 0.223103     H
H     0.102403  0.56138 0.613114     H
O     0.103839  0.15032  0.66354     O
O     0.103839  0.66354   0.5823     O
O      0.10384 0.150321   0.5823     O
O      0.10384 0.582299  0.66354     O
O      0.10384 0.582301  0.15032     O
O      0.10384 0.663539  0.15032     O
O      0.10405 0.296029 0.803889     O
O      0.10405  0.29603 0.296031     O
O      0.10405 0.803889 0.296031     O
C      0.10412 0.252979 0.252979     C
C      0.10412 0.252979  0.88992     C
C      0.10412  0.88992 0.252979     C
C     0.107319  0.17208   0.6465     C
C     0.107319   0.5741   0.6465     C
C     0.107319   0.6465 0.574099     C
C      0.10732  0.17208 0.574099     C
C      0.10732 0.574099  0.17208     C
C      0.10732 0.646499  0.17208     C
C      0.10931 0.0229694  0.18386     C
C      0.10931 0.183859 0.0229708     C
C     0.109311  0.18386  0.18386     C
C     0.110079  0.74702  0.74702     C
C     0.110079  0.74702  0.89588     C
C      0.11008  0.89588  0.74702     C
N     0.11009628 0.29032365 0.8858675     N
N     0.11009633 0.21371102 0.29032362     N
N     0.11009633 0.88586797 0.29032365     N
H     0.110467 0.284523 0.216132     H
H     0.110468 0.216132 0.888877     H
H     0.110468 0.888877 0.216132     H
H     0.111122 0.715476 0.783867     H
H     0.111122 0.715477 0.889532     H
H     0.111122 0.783867 0.889532     H
H     0.111122 0.783868 0.715477     H
H     0.111122 0.889532 0.783867     H
H     0.111122 0.889533 0.715477     H
C     0.111439 0.225299  0.26456     C
C     0.111439  0.26456   0.2253     C
C     0.111439  0.26456   0.8987     C
C     0.111439   0.8987  0.26456     C
C      0.11144 0.225299   0.8987     C
C      0.11144   0.8987   0.2253     C
Cr    0.113819  0.11382  0.60876    Cr
Cr    0.113819  0.60876 0.113819    Cr
Cr    0.113819 0.663601 0.113819    Cr
Cr     0.11382  0.11382 0.663599    Cr
Cr     0.11382  0.60876 0.663599    Cr
Cr     0.11382 0.663599  0.60876    Cr
O     0.115259  0.29232 0.337221     O
O     0.115259  0.29232 0.755199     O
O     0.115259   0.7552 0.337221     O
O     0.115259 0.755201  0.29232     O
O      0.11526  0.33722  0.29232     O
O      0.11526  0.33722 0.755199     O
C     0.120159 0.249241 0.209719     C
C      0.12016 0.209719 0.249239     C
C      0.12016  0.20972 0.920879     C
C      0.12016  0.24924 0.920879     C
C      0.12016 0.920879 0.209719     C
C      0.12016 0.920879 0.249239     C
O     0.120769 0.0185103 0.198869     O
O     0.120769 0.198871 0.0185096     O
O      0.12077  0.19887  0.16185     O
O     0.120771 0.0185092  0.16185     O
O     0.120771  0.16185 0.0185096     O
O     0.120771  0.16185 0.198869     O
H     0.12211882 0.62395811 0.71162877     H
H     0.12211908 0.04229493 0.7116276     H
H     0.12211928 0.71162686 0.0422957     H
C     0.123209 0.222151  0.93249     C
C      0.12321  0.22215  0.22215     C
C      0.12321 0.932489  0.22215     C
O      0.12367 0.123671  0.62633     O
O      0.12367  0.62633  0.62633     O
O     0.123671  0.62633 0.123669     O
H      0.12427 0.189103  0.25815     H
H      0.12427 0.258151 0.189103     H
H      0.12427 0.928475 0.189103     H
H     0.124271 0.189103 0.928475     H
H     0.124271  0.25815 0.928475     H
H     0.124272 0.928475  0.25815     H
H     0.12440012 0.21093013 0.05586295     H
H     0.12440074 0.05586043 0.10880645     H
H     0.12440134 0.05586004 0.21092918     H
O     0.125119 0.578659 0.172381     O
O     0.125119  0.62384 0.172381     O
O      0.12512 0.172379  0.57866     O
O      0.12512  0.17238 0.623839     O
O      0.12512 0.578661 0.623839     O
O      0.12512 0.623839  0.57866     O
H     0.12581588 0.29505049 0.87072186     H
H     0.12581592 0.87072242 0.29505059     H
H     0.12581598 0.20841037 0.2950503     H
O     0.126379  0.23226 0.816059     O
O     0.126379  0.81606 0.232259     O
O      0.12638 0.232259   0.3253     O
O      0.12638   0.3253 0.232259     O
O      0.12638  0.81606   0.3253     O
O     0.126381   0.3253 0.816059     O
O     0.127269 0.0759504  0.63161     O
O     0.127269  0.63161 0.0759503     O
O      0.12727 0.0759507  0.66517     O
O      0.12727  0.63161  0.66517     O
O      0.12727 0.665169 0.0759503     O
O      0.12727  0.66517  0.63161     O
C     0.129869 0.0629097  0.65361     C
C     0.129869  0.65361 0.0629096     C
C      0.12987 0.653609  0.65361     C
H     0.13204931 0.18498843 0.34817531     H
H     0.13204989 0.18498821 0.83478805     H
H     0.13205153 0.34817651 0.83478581     H
H     0.13205189 0.83478801 0.34817572     H
H     0.1320543 0.34818037 0.18497912     H
H     0.13205459 0.83478952 0.18497838     H
Cr    0.133319 0.299319  0.29932    Cr
Cr     0.13332 0.299321 0.768039    Cr
Cr     0.13332 0.768039  0.29932    Cr
C      0.13492  0.73336 0.733359     C
C      0.13492 0.898361 0.733359     C
C     0.134921 0.733359 0.898359     C
C       0.1354  0.20626  0.20626     C
C       0.1354  0.20626 0.952079     C
C       0.1354  0.95208  0.20626     C
H     0.13637501 0.18931413 0.31640907     H
H     0.13637662 0.31641069 0.85790145     H
H     0.13637717 0.31641525 0.18930436     H
H     0.13637729 0.18931401 0.85790171     H
H     0.13637791 0.85790243 0.31640926     H
H     0.13638061 0.85790395 0.1893044     H
F     0.138149  0.23981  0.13815     F
H     0.13905186 0.23542402 0.03628937     H
H     0.13905308 0.03628646 0.23542307     H
H     0.13905358 0.03628769 0.08923332     H
O     0.139209  0.18307  0.96219     O
O     0.139209  0.21553 0.183071     O
O     0.139209  0.21553  0.96219     O
O     0.139209 0.962189 0.183071     O
O      0.13921  0.18307 0.215529     O
O      0.13921 0.962189 0.215529     O
N     0.13947691 0.21715744 0.04932895     N
N     0.13947777 0.0493273 0.09403592     N
N     0.1394778 0.04932658 0.21715674     N
N     0.14028803 0.62524529 0.70018516     N
N     0.14028825 0.03428168 0.70018427     N
N     0.1402884 0.70018364 0.03428222     N
H      0.14111 0.697618 0.630632     H
H     0.141112 0.0306379 0.630632     H
H     0.141112 0.630631 0.0306382     H
C      0.14208 0.0342411 0.661839     C
C      0.14208 0.661839 0.661839     C
C      0.14208  0.66184 0.0342399     C
H     0.14209455 0.81069324 0.68359026     H
H     0.14209587 0.81068648 0.86362216     H
H     0.14209637 0.68359376 0.81068514     H
N     0.14314845 0.18787977 0.32898335     N
N     0.14314976 0.18787965 0.83998853     N
N     0.14315012 0.32898438 0.83998762     N
N     0.14315072 0.83998878 0.32898357     N
N     0.14315133 0.32898772 0.18787227     N
N     0.14315296 0.83998989 0.18787202     N
C     0.143589 0.0203904  0.68671     C
C     0.143589  0.64931  0.68671     C
C     0.143589  0.68671 0.0203904     C
C     0.143589  0.68671 0.649309     C
C      0.14359 0.0203898 0.649309     C
C      0.14359 0.649309 0.0203904     C
O     0.143769  0.70843  0.74449     O
O     0.143769  0.74449  0.70843     O
O     0.143771 0.708429 0.903309     O
O     0.143771 0.744489 0.903309     O
O     0.143771 0.903309  0.74449     O
O     0.143771  0.90331  0.70843     O
H     0.144693 0.0916438 0.213109     H
H     0.144693 0.213108 0.0916436     H
H     0.144694 0.0916433 0.0505549     H
Cr     0.14579  0.14579 0.604209    Cr
Cr     0.14579  0.60421 0.604209    Cr
Cr    0.145791 0.604209  0.14579    Cr
C     0.145889 0.687249  0.97961     C
C     0.145889 0.979609  0.68725     C
C      0.14589  0.68725  0.68725     C
C     0.148309 0.236969  0.80369     C
C     0.148309  0.80369  0.23697     C
C      0.14831  0.23697  0.31103     C
C      0.14831 0.311029  0.23697     C
C      0.14831 0.311029  0.80369     C
C      0.14831 0.803689  0.31103     C
C     0.148419    0.661 0.992559     C
C     0.148419  0.99256 0.660999     C
C      0.14842 0.660999  0.69802     C
C      0.14842 0.698019 0.660999     C
C      0.14842 0.698019 0.992559     C
C      0.14842 0.992559  0.69802     C
O     0.150319  0.10384  0.66354     O
O     0.150319  0.66354   0.5823     O
O      0.15032  0.10384   0.5823     O
O      0.15032 0.582299  0.66354     O
O      0.15032   0.5823  0.10384     O
O      0.15032 0.663539  0.10384     O
O     0.150449  0.78481 0.305651     O
O     0.150449 0.784811 0.259089     O
O      0.15045  0.25909 0.305651     O
O      0.15045  0.25909 0.784809     O
O      0.15045 0.305649 0.784809     O
O     0.150451  0.30565 0.259089     O
Cr     0.15227  0.15227  0.20589    Cr
Cr     0.15227  0.15227  0.98957    Cr
Cr     0.15227 0.205889 0.152271    Cr
Cr     0.15227 0.205889  0.98957    Cr
Cr     0.15227 0.989569  0.20589    Cr
Cr    0.152271 0.989569 0.152271    Cr
H     0.154073 0.649391 0.715044     H
H     0.154073 0.715044 0.649391     H
H     0.154073 0.981491 0.715044     H
H     0.154074  0.64939 0.981491     H
H     0.154074 0.715043 0.981491     H
H     0.154074 0.981491 0.649391     H
H     0.15601739 0.60874551 0.69870147     H
H     0.15601772 0.03653591 0.69870018     H
H     0.15601795 0.69869919 0.03653662     H
F     0.156249 0.922009  0.65545     F
F      0.15625 0.655449 0.766289     F
C       0.1585 0.694699   0.9521     C
C       0.1585   0.6947 0.694699     C
C     0.158501 0.952099 0.694699     C
N     0.16000855 0.81212579 0.67101612     N
N     0.16000892 0.81212103 0.85684988     N
N     0.16000929 0.67101837 0.81212005     N
H     0.16036345 0.54277073 0.09038273     H
H     0.16036371 0.09038086 0.5427706     H
H     0.16036466 0.70648478 0.54277136     H
H     0.16036575 0.09037862 0.70648448     H
H     0.16036622 0.70648359 0.09038278     H
H     0.16036654 0.54276642 0.7064841     H
C      0.16045 0.0581297 0.200869     C
C      0.16045 0.0581302 0.0805499     C
C      0.16045 0.0805497 0.0581306     C
C      0.16045 0.200869 0.0581306     C
C     0.160451 0.0805494 0.200869     C
C     0.160451 0.200869 0.0805499     C
H     0.16074476 0.57190294 0.06345102     H
H     0.16074484 0.06344993 0.57190341     H
H     0.16074575 0.7039028 0.0634514     H
H     0.16074581 0.57189936 0.70390291     H
H     0.16074715 0.70390059 0.57190403     H
H     0.16074802 0.06344741 0.70390092     H
O      0.16185 0.0185095 0.120769     O
O      0.16185 0.0185103 0.198869     O
O      0.16185  0.12077 0.0185096     O
O      0.16185 0.120771 0.198869     O
O      0.16185  0.19887 0.120769     O
O      0.16185 0.198871 0.0185096     O
H     0.164181 0.851725 0.673188     H
H     0.164182 0.673187 0.851723     H
H     0.164182 0.851724 0.810906     H
H     0.16520887 0.81501316 0.86794968     H
H     0.16520916 0.8150187 0.6518239     H
H     0.16520937 0.65182656 0.81501183     H
C     0.167329 0.189851  0.32003     C
C      0.16733 0.189851 0.822789     C
C      0.16733  0.32003 0.822789     C
C      0.16733 0.320031 0.189849     C
C      0.16733 0.822789  0.32003     C
C     0.167331 0.822789 0.189849     C
F     0.167629  0.58237 0.167631     F
O     0.169219 0.674679  0.94354     O
O     0.169219  0.67468 0.712559     O
O     0.169219  0.71256 0.674679     O
O     0.169219  0.71256  0.94354     O
O      0.16922 0.943539 0.674679     O
O      0.16922  0.94354 0.712559     O
N     0.16952225 0.55601277 0.0762837     N
N     0.16952238 0.07628238 0.55601289     N
N     0.16952383 0.69818148 0.5560134     N
N     0.16952389 0.69818186 0.07628386     N
N     0.16952403 0.55600962 0.69818208     N
N     0.16952482 0.07628048 0.6981815     N
C     0.170789  0.21449  0.31041     C
C     0.170789  0.21449  0.80431     C
C     0.170789 0.310409 0.214491     C
C     0.170789 0.310409  0.80431     C
C     0.170789 0.804309 0.214491     C
C     0.170789 0.804309  0.31041     C
O     0.170843 0.170843 0.170843     O
O     0.170843 0.170844 0.987469     O
O     0.170843  0.98747 0.170843     O
H     0.17105685 0.92415635 0.14388149     H
H     0.17105704 0.14388295 0.26090316     H
H     0.17105704 0.26090416 0.14388195     H
H     0.17105769 0.14388385 0.92415081     H
H     0.17105879 0.92415226 0.26090365     H
H     0.17105897 0.26090521 0.92415139     H
C      0.17208  0.10732   0.6465     C
C      0.17208   0.5741   0.6465     C
C     0.172081  0.10732 0.574099     C
C     0.172081   0.5741 0.107319     C
C     0.172081 0.646499 0.107319     C
C     0.172081   0.6465 0.574099     C
O      0.17238  0.12512 0.623839     O
O      0.17238 0.578661 0.623839     O
O      0.17238 0.623839  0.57866     O
O      0.17238 0.623841 0.125119     O
O     0.172381  0.12512  0.57866     O
O     0.172381 0.578659 0.125119     O
H     0.1754351 0.11120521 0.94513071     H
H     0.17543529 0.26822753 0.94513131     H
H     0.17543539 0.94513307 0.26822452     H
H     0.17543551 0.11120416 0.26822376     H
H     0.17543551 0.26822476 0.11120316     H
H     0.17543585 0.94513566 0.11120253     H
Cr    0.176279  0.67812 0.738799    Cr
Cr    0.176279   0.7388 0.678119    Cr
Cr     0.17628 0.678119   0.9068    Cr
Cr     0.17628   0.9068 0.678119    Cr
Cr    0.176281 0.738799   0.9068    Cr
Cr    0.176281 0.906799 0.738799    Cr
C     0.177209  0.67997 0.810149     C
C     0.177209 0.810149  0.83267     C
C     0.177209  0.81015  0.67997     C
C      0.17721  0.67997  0.83267     C
C      0.17721 0.832669  0.67997     C
C      0.17721 0.832669 0.810149     C
O     0.183069  0.13921  0.96219     O
O     0.183069  0.21553 0.139211     O
O     0.183069  0.96219 0.139211     O
O      0.18307  0.13921 0.215529     O
O      0.18307  0.21553  0.96219     O
O     0.183071 0.962189 0.215529     O
N     0.18308839 0.12555117 0.26042829     N
N     0.18308839 0.26042929 0.12555017     N
N     0.18308844 0.93093137 0.12554977     N
N     0.18308848 0.12555215 0.93092727     N
N     0.18308926 0.93092866 0.26042874     N
N     0.18308929 0.26043068 0.9309277     N
C       0.1832 0.0452598  0.08834     C
C       0.1832 0.0883392 0.183199     C
C       0.1832 0.0883406 0.0452595     C
C       0.1832 0.183199  0.08834     C
C     0.183201 0.0452602 0.183199     C
C     0.183201 0.183199 0.0452595     C
C     0.183859 0.183859 0.0229708     C
C      0.18386 0.0229694  0.18386     C
C      0.18386 0.0229709 0.109309     C
C      0.18386 0.109309 0.0229708     C
C      0.18386 0.109309  0.18386     C
C      0.18386 0.183859 0.109309     C
O     0.183939  0.76774   0.6747     O
O      0.18394 0.674699 0.767739     O
O      0.18394 0.674699  0.87362     O
O      0.18394 0.767738  0.87362     O
O      0.18394  0.87362   0.6747     O
O     0.183941 0.873619 0.767739     O
H     0.189093 0.835818 0.326813     H
H     0.189094 0.148276 0.326813     H
H     0.189094 0.148276 0.835818     H
H     0.189094 0.326812 0.148275     H
H     0.189094 0.326812 0.835818     H
H     0.189094 0.835818 0.148275     H
C     0.189849 0.822789 0.167331     C
C      0.18985  0.16733  0.32003     C
C      0.18985  0.16733 0.822789     C
C      0.18985 0.822789  0.32003     C
C     0.189851 0.320029 0.167331     C
C     0.189851  0.32003 0.822789     C
H      0.19046 0.230937 0.315232     H
H      0.19046 0.315232 0.230938     H
H      0.19046 0.315232  0.76337     H
H      0.19046 0.763369 0.315232     H
H      0.19046  0.76337 0.230938     H
H     0.190461 0.230937  0.76337     H
C      0.19184  0.21434  0.78062     C
C      0.19184 0.313199  0.21434     C
C      0.19184  0.78062  0.21434     C
C     0.191841  0.21434 0.313199     C
C     0.191841 0.313199  0.78062     C
C     0.191841  0.78062 0.313199     C
C     0.193789 0.0745695  0.55243     C
C     0.193789  0.55243 0.0745704     C
C      0.19379 0.552429  0.67921     C
C      0.19379  0.67921 0.0745704     C
C      0.19379  0.67921  0.55243     C
C     0.193791 0.0745689  0.67921     C
C     0.195689  0.82921  0.78551     C
C      0.19569 0.689589  0.78551     C
C      0.19569 0.689589 0.829209     C
C      0.19569 0.785508 0.689591     C
C      0.19569  0.78551 0.829209     C
C      0.19569 0.829208 0.689591     C
C     0.195918  0.56308   0.6523     C
C     0.195919   0.6523 0.563079     C
C      0.19592 0.0887004 0.563079     C
C      0.19592 0.0887005   0.6523     C
C      0.19592  0.56308 0.0887006     C
C      0.19592 0.652299 0.0887006     C
O     0.196109  0.89595  0.70397     O
O      0.19611 0.703969  0.70397     O
O      0.19611 0.703969  0.89595     O
C     0.196309 0.688969  0.85169     C
C     0.196309  0.68897 0.763031     C
C      0.19631 0.763029 0.688969     C
C      0.19631 0.763029  0.85169     C
C      0.19631 0.851688 0.763031     C
C      0.19631  0.85169 0.688969     C
H     0.19740466 0.95581657 0.61702854     H
H     0.1974051 0.61703259 0.72974129     H
H     0.19740544 0.7297442 0.9558186     H
H     0.19740571 0.61703228 0.95581832     H
H     0.19740606 0.95581624 0.72974503     H
H     0.19740614 0.72974257 0.6170282     H
O     0.198869  0.12077 0.0185096     O
O      0.19887 0.0185095 0.120769     O
O     0.198871 0.0185092  0.16185     O
O     0.198871 0.120769  0.16185     O
O     0.198871  0.16185 0.0185096     O
O     0.198871  0.16185 0.120769     O
C     0.200869 0.0581297 0.160451     C
C     0.200869 0.0805493 0.160451     C
C      0.20087 0.0581302 0.0805499     C
C      0.20087 0.0805497 0.0581306     C
C      0.20087 0.160449 0.0581306     C
C      0.20087 0.160449 0.0805499     C
H     0.20262267 0.60714403 0.75895519     H
H     0.20262411 0.75895622 0.60713975     H
H     0.20262449 0.60714293 0.93127545     H
H     0.20262521 0.75895702 0.93127505     H
H     0.20262676 0.9312722 0.7589573     H
H     0.20262687 0.93127223 0.6071391     H
Cr    0.205889  0.15227 0.152271    Cr
Cr    0.205889  0.15227  0.98957    Cr
Cr    0.205889 0.989569 0.152271    Cr
C     0.206259  0.95208   0.1354     C
C      0.20626   0.1354  0.20626     C
C      0.20626   0.1354 0.952079     C
C      0.20626  0.20626 0.952079     C
C      0.20626 0.206261   0.1354     C
C      0.20626  0.95208  0.20626     C
C      0.20972  0.12016 0.249239     C
C      0.20972 0.120161 0.920879     C
C      0.20972  0.24924 0.120159     C
C      0.20972  0.92088 0.120159     C
C     0.209721  0.24924 0.920879     C
C     0.209721 0.920879 0.249239     C
N     0.2098267 0.60963051 0.73958575     N
N     0.20982785  0.60963 0.94095455     N
N     0.20982787 0.73958659 0.60962708     N
N     0.20982802 0.73958748 0.94095451     N
N     0.20982833 0.94095247 0.60962696     N
N     0.20982908 0.94095234 0.73958788     N
O     0.210399 0.727839   0.6507     O
O     0.210399 0.727839  0.91106     O
O     0.210399  0.91106  0.72784     O
O       0.2104 0.650699  0.72784     O
O       0.2104 0.650699  0.91106     O
O       0.2104 0.911059   0.6507     O
H     0.213108 0.0916434 0.144693     H
H     0.213108 0.144693 0.0916436     H
H     0.213109 0.0505544 0.144693     H
H     0.213109 0.0505551 0.0916436     H
H     0.213109 0.0916433 0.0505549     H
H     0.213109 0.144693 0.0505549     H
C     0.214339  0.19184  0.78062     C
C     0.214339 0.191841 0.313199     C
C     0.214339 0.313199  0.78062     C
C     0.214339 0.313201 0.191839     C
C     0.214339  0.78062 0.313199     C
C      0.21434  0.78062 0.191839     C
C     0.214489  0.17079  0.80431     C
C     0.214489 0.310409  0.80431     C
C     0.214489 0.804309  0.31041     C
C      0.21449  0.17079  0.31041     C
C      0.21449  0.31041  0.17079     C
C      0.21449  0.80431  0.17079     C
O     0.215189  0.69435  0.84955     O
O     0.215189 0.849549  0.69435     O
O      0.21519  0.69435 0.740909     O
O      0.21519 0.740909  0.69435     O
O      0.21519 0.740909  0.84955     O
O     0.215191 0.849549 0.740909     O
O     0.215529  0.13921  0.96219     O
O      0.21553  0.13921 0.183071     O
O      0.21553 0.183069 0.139211     O
O      0.21553  0.18307  0.96219     O
O      0.21553 0.962189 0.183071     O
O      0.21553  0.96219 0.139211     O
H     0.216132 0.110468 0.284522     H
H     0.216132 0.284523 0.888877     H
H     0.216132 0.888878 0.284522     H
H     0.216133 0.110466 0.888877     H
H     0.216133 0.284523 0.110467     H
H     0.216133 0.888876 0.110467     H
H     0.216391 0.0445701 0.533626     H
H     0.216391 0.0445716 0.705411     H
H     0.216391 0.533625 0.0445715     H
H     0.216391 0.705411 0.0445715     H
H     0.216391 0.705411 0.533626     H
H     0.216392 0.533626 0.705411     H
C     0.216859  0.53806  0.68642     C
C     0.216859  0.68642  0.53806     C
C      0.21686 0.0586597  0.53806     C
C      0.21686  0.05866  0.68642     C
C      0.21686 0.686419 0.0586608     C
C     0.216861 0.538059 0.0586608     C
C     0.219379 0.808159  0.78566     C
C      0.21938 0.686799  0.78566     C
C      0.21938   0.6868 0.808159     C
C      0.21938 0.785659 0.808159     C
C      0.21938  0.78566   0.6868     C
C      0.21938  0.80816   0.6868     C
C     0.221009  0.55665 0.0895504     C
C     0.221009  0.63279 0.0895504     C
C      0.22101  0.08955  0.55665     C
C      0.22101 0.0895502 0.632789     C
C     0.221011  0.55665 0.632789     C
C     0.221011 0.632789  0.55665     C
C     0.222149 0.123211  0.93249     C
C      0.22215  0.12321  0.22215     C
C      0.22215 0.222151 0.123209     C
C      0.22215 0.222151  0.93249     C
C      0.22215 0.932489 0.123209     C
C      0.22215 0.932489  0.22215     C
H     0.223102 0.102402 0.613114     H
H     0.223102 0.613115  0.56138     H
H     0.223103  0.56138 0.613114     H
H     0.223103 0.561381 0.102402     H
H     0.223103 0.613113 0.102402     H
H     0.223104 0.102402  0.56138     H
C     0.225299  0.11144  0.26456     C
C     0.225299 0.264561 0.111439     C
C       0.2253 0.111441   0.8987     C
C       0.2253  0.26456   0.8987     C
C       0.2253   0.8987  0.26456     C
C     0.225301 0.898699 0.111439     C
H     0.230937 0.315232  0.76337     H
H     0.230938  0.19046 0.315232     H
H     0.230938  0.19046  0.76337     H
H     0.230938 0.315232 0.190459     H
H     0.230938 0.763369 0.315232     H
H     0.230938  0.76337 0.190459     H
Cr     0.23196 0.700679  0.70068    Cr
Cr     0.23196  0.70068  0.86668    Cr
Cr     0.23196  0.86668  0.70068    Cr
O     0.232259  0.12638   0.3253     O
O     0.232259   0.3253  0.12638     O
O     0.232259  0.81606   0.3253     O
O      0.23226  0.12638 0.816059     O
O      0.23226   0.3253 0.816059     O
O      0.23226 0.816059  0.12638     O
F     0.233709 0.843749 0.344551     F
F      0.23371 0.344549  0.84375     F
C      0.23422   0.6461   0.7165     C
C      0.23422   0.6461 0.903179     C
C      0.23422 0.716501 0.903179     C
C      0.23422 0.903179 0.646099     C
C      0.23422 0.903179   0.7165     C
C     0.234221 0.716499 0.646099     C
C     0.236379  0.60298 0.726699     C
C      0.23638  0.60298  0.93394     C
C      0.23638 0.726699 0.602979     C
C      0.23638 0.726699  0.93394     C
C      0.23638 0.933939 0.602979     C
C     0.236381 0.933939 0.726699     C
H     0.236628 0.684769 0.769063     H
H     0.236629 0.684768 0.809539     H
H     0.236629 0.769062 0.684769     H
H     0.236629 0.769062 0.809539     H
H     0.236629 0.809539 0.684769     H
H     0.236629 0.809539 0.769063     H
C     0.236969 0.148311  0.80369     C
C     0.236969 0.803689 0.148311     C
C      0.23697 0.148309  0.31103     C
C      0.23697 0.311029 0.148311     C
C      0.23697 0.311029  0.80369     C
C      0.23697 0.803689  0.31103     C
F      0.23981  0.98389  0.13815     F
F     0.239811 0.138149  0.98389     F
C     0.240169 0.0620105  0.52991     C
C     0.240169 0.529911 0.0620091     C
C      0.24017 0.0620092  0.66791     C
C      0.24017  0.52991  0.66791     C
C      0.24017  0.66791  0.52991     C
C      0.24017 0.667911 0.0620091     C
H     0.24104108 0.3928587 0.79737286     H
H     0.24104146 0.79737333 0.06872444     H
H     0.24104178 0.06872311 0.79737384     H
H     0.24104315 0.79737498 0.39285217     H
H     0.24104361 0.39285582 0.06872449     H
H     0.24104382 0.06872694 0.39285236     H
H     0.242151   0.7344   0.5635     H
H     0.242151 0.959947   0.5635     H
H     0.242152 0.563499   0.7344     H
H     0.242152 0.563499 0.959947     H
H     0.242152   0.7344 0.959947     H
H     0.242152 0.959948   0.7344     H
C     0.243269 0.0726497  0.64041     C
C     0.243269  0.64041 0.0726506     C
C      0.24327 0.0726497 0.543669     C
C      0.24327 0.543669 0.0726506     C
C      0.24327 0.543671  0.64041     C
C     0.243271 0.640409 0.543669     C
O     0.244799 0.707681 0.884739     O
O       0.2448 0.884739  0.66278     O
O       0.2448  0.88474 0.707679     O
O     0.244801 0.662779 0.707679     O
O     0.244801 0.662779 0.884739     O
O     0.244801 0.707679  0.66278     O
C      0.24922  0.62114 0.914999     C
C      0.24922 0.714639 0.914999     C
C      0.24922 0.914999  0.62114     C
C      0.24922 0.914999 0.714639     C
C     0.249221  0.62114 0.714639     C
C     0.249221 0.714639  0.62114     C
C     0.249239 0.120161 0.920879     C
C      0.24924  0.12016 0.209719     C
C      0.24924  0.20972 0.120159     C
C      0.24924  0.20972 0.920879     C
C      0.24924 0.920879 0.209719     C
C      0.24924  0.92088 0.120159     C
F     0.250459  6.5e-07      0.5     F
F     0.250459      0.5      0.0     F
F      0.25046  2.6e-07  0.74954     F
F      0.25046  0.74954      0.0     F
C     0.251289 0.577869  0.72529     C
C     0.251289  0.72529  0.57787     C
C     0.251289  0.94555  0.72529     C
C      0.25129  0.57787  0.94555     C
C      0.25129 0.725289  0.94555     C
C      0.25129 0.945549  0.57787     C
C      0.25298 0.104119  0.88992     C
C      0.25298 0.252981 0.104119     C
C      0.25298 0.889919 0.104119     C
C     0.252981 0.104119 0.252979     C
C     0.252981 0.252979  0.88992     C
C     0.252981  0.88992 0.252979     C
O     0.254239 0.0302803   0.7007     O
O     0.254239 0.700699 0.0302795     O
O      0.25424 0.514779   0.7007     O
O      0.25424   0.7007  0.51478     O
O     0.254241 0.0302794  0.51478     O
O     0.254241  0.51478 0.0302795     O
O      0.25551 0.0966894 0.856229     O
O      0.25551 0.0966896 0.291569     O
O      0.25551  0.29157 0.0966895     O
O      0.25551  0.29157 0.856229     O
O      0.25551 0.856229 0.0966895     O
O      0.25551  0.85623 0.291569     O
F      0.25572 0.706419  0.83144     F
H      0.25815  0.12427 0.189103     H
H      0.25815 0.189104  0.12427     H
H      0.25815 0.928475 0.189103     H
H     0.258151 0.124272 0.928475     H
H     0.258151 0.189103 0.928475     H
H     0.258151 0.928475  0.12427     H
O     0.259089 0.150449 0.305651     O
O     0.259089  0.30565 0.150451     O
O      0.25909  0.78481 0.150451     O
O      0.25909  0.78481 0.305651     O
O     0.259091  0.15045 0.784809     O
O     0.259091 0.305649 0.784809     O
N     0.26041064 0.39037104 0.79017083     N
N     0.2604111 0.79017091 0.05904503     N
N     0.26041153 0.05904431 0.79017098     N
N     0.26041239 0.79017218 0.39036612     N
N     0.26041307 0.05904705 0.39036648     N
N     0.2604131 0.39036885 0.05904505     N
C     0.260809 0.0457697  0.51607     C
C     0.260809 0.0457705 0.677349     C
C     0.260809  0.51607 0.0457701     C
C     0.260809  0.67735 0.0457701     C
C     0.260809  0.67735  0.51607     C
C      0.26081 0.516069 0.677349     C
Cr    0.261199 0.0932004  0.82372    Cr
Cr    0.261199 0.321879  0.82372    Cr
Cr    0.261199 0.823719  0.32188    Cr
Cr    0.261199  0.82372 0.0932008    Cr
Cr      0.2612  0.32188 0.0932008    Cr
Cr    0.261201 0.0931993  0.32188    Cr
H     0.26197517 0.02493346 0.35498373     H
H     0.2619753 0.85811078 0.02492683     H
H     0.26197555 0.85810949 0.35498527     H
H     0.26197557 0.02492975 0.8581095     H
H     0.26197567 0.35498343 0.85810908     H
H     0.26197609 0.35498941 0.02492759     H
H     0.262172 0.626369 0.543827     H
H     0.262173 0.0676296 0.626369     H
H     0.262173 0.0676302 0.543827     H
H     0.262173 0.543827 0.626369     H
H     0.262173 0.626369  0.06763     H
H     0.262174 0.543827  0.06763     H
C     0.264559 0.111441   0.8987     C
C      0.26456  0.11144   0.2253     C
C      0.26456 0.225299   0.8987     C
C      0.26456   0.2253 0.111439     C
C      0.26456 0.898699 0.111439     C
C      0.26456   0.8987   0.2253     C
H     0.265599 0.0400525 0.757848     H
H       0.2656 0.0400516   0.4365     H
H       0.2656 0.436499 0.757848     H
H       0.2656   0.4365 0.0400518     H
H       0.2656 0.757847 0.0400518     H
H       0.2656 0.757847   0.4365     H
C     0.266639 0.101641  0.86508     C
C      0.26664  0.10164  0.26664     C
C      0.26664  0.26664  0.10164     C
C      0.26664  0.26664  0.86508     C
C      0.26664 0.865079  0.10164     C
C      0.26664  0.86508  0.26664     C
H     0.27025329 0.38296893 0.80259407     H
H     0.27025415 0.80259382 0.0441813     H
H     0.27025501 0.04418053 0.8025935     H
H     0.27025599 0.8025949 0.38296274     H
H     0.27025675 0.38296654 0.04418132     H
H     0.2702572 0.04418376 0.38296351     H
O      0.27216 0.0889397   0.3493     O
O      0.27216 0.0889404 0.789599     O
O      0.27216 0.349299 0.0889403     O
O      0.27216   0.7896 0.0889403     O
O      0.27216   0.7896   0.3493     O
O     0.272161   0.3493 0.789599     O
C       0.2733 0.0660593 0.763619     C
C       0.2733 0.0660599 0.397019     C
C       0.2733  0.39702 0.763619     C
C       0.2733 0.763619 0.0660591     C
C       0.2733  0.76362 0.397019     C
C     0.273301 0.397019 0.0660591     C
C      0.27471  0.05445  0.42213     C
C      0.27471  0.74871  0.42213     C
C     0.274711 0.0544492 0.748709     C
C     0.274711 0.422129 0.054449     C
C     0.274711 0.422129 0.748709     C
C     0.274711 0.748709 0.054449     C
H     0.27478663 0.9544156 0.78605383     H
H     0.27478666 0.78605394 0.95441621     H
H     0.27478669 0.95441306 0.48474435     H
H     0.27478676 0.48474399 0.95441503     H
H     0.27478687 0.4847446 0.78605423     H
H     0.2747878 0.7860539 0.48474496     H
O       0.2749 0.534599  0.71834     O
O       0.2749   0.5346 0.972159     O
O       0.2749  0.71834 0.972159     O
O       0.2749  0.97216  0.71834     O
O     0.274901 0.718339 0.534599     O
O     0.274901 0.972159 0.534599     O
C     0.275099   0.6978  0.61632     C
C     0.275099 0.910779  0.61632     C
C     0.275099  0.91078   0.6978     C
C       0.2751 0.616319  0.91078     C
C       0.2751  0.61632   0.6978     C
C       0.2751 0.697799  0.91078     C
C     0.278579  0.93792  0.57186     C
C      0.27858 0.571859 0.711639     C
C      0.27858  0.57186 0.937919     C
C      0.27858 0.711639  0.57186     C
C      0.27858  0.71164 0.937919     C
C      0.27858 0.937919 0.711639     C
N     0.2800195 0.84425983 0.02223698     N
N      0.28002 0.844259 0.35348186     N
N     0.28002001 0.0222389 0.844259     N
N     0.28002018 0.35348041 0.84425873     N
N     0.28002021 0.02224114 0.35348041     N
N     0.28002125 0.35348469 0.02223647     N
O     0.281659 0.0278404   0.4654     O
O      0.28166 0.0278398 0.725099     O
O      0.28166 0.465399 0.725099     O
O      0.28166   0.4654 0.0278394     O
O      0.28166 0.725099 0.0278394     O
O      0.28166 0.725099   0.4654     O
H     0.28183203 0.82499905 0.03048453     H
H     0.28183314 0.03048644 0.82499807     H
H     0.28183315 0.82499807 0.36268245     H
H     0.28183351 0.36268032 0.82499773     H
H     0.28183484 0.03048822 0.36268001     H
H     0.28183603 0.3626853 0.03048238     H
H     0.282875 0.631951 0.685529     H
H     0.282875 0.685528 0.631951     H
H     0.282876 0.631951 0.899643     H
H     0.282876 0.685528 0.899643     H
H     0.282876 0.899642 0.685529     H
H     0.282876 0.899643 0.631951     H
C     0.283499  0.76578 0.0968201     C
C       0.2835  0.09682 0.765779     C
C       0.2835 0.0968201   0.3539     C
C       0.2835   0.3539 0.0968201     C
C       0.2835 0.765779   0.3539     C
C     0.283501 0.353899 0.765779     C
O      0.28397 0.0408704 0.661609     O
O      0.28397  0.51355 0.0408704     O
O      0.28397  0.51355 0.661609     O
O      0.28397 0.661609 0.0408704     O
O      0.28397  0.66161  0.51355     O
O     0.283971 0.0408693  0.51355     O
Cr      0.2841  6.5e-07      0.5    Cr
Cr      0.2841 0.499999   0.7159    Cr
Cr      0.2841      0.5      0.0    Cr
Cr      0.2841 0.715899      0.0    Cr
Cr      0.2841   0.7159      0.5    Cr
Cr      0.2841 0.99999904   0.7159    Cr
H     0.284523 0.110466 0.888877     H
H     0.284523 0.110467 0.216132     H
H     0.284523 0.216132 0.110467     H
H     0.284523 0.216132 0.888877     H
H     0.284523 0.888876 0.110467     H
H     0.284523 0.888877 0.216132     H
C     0.285359 0.0849994 0.378861     C
C     0.285359 0.0850009 0.750779     C
C     0.285359  0.75078 0.0849995     C
C     0.285359  0.75078 0.378861     C
C      0.28536 0.378859 0.0849995     C
C      0.28536  0.37886 0.750779     C
H     0.28552164 0.97832311 0.45530273     H
H     0.28552211 0.78085056 0.45530348     H
H     0.28552223 0.45530355 0.78084962     H
H     0.28552276 0.4553028 0.97832486     H
H     0.28552346 0.78084988 0.97832517     H
H     0.28552369 0.97832428 0.78084996     H
O      0.28744 0.0564597  0.32532     O
O      0.28744 0.0564598 0.830779     O
O      0.28744 0.325319 0.0564604     O
O      0.28744  0.32532 0.830779     O
O      0.28744 0.830779 0.0564604     O
O      0.28744 0.830779  0.32532     O
C     0.288359 0.428141  0.72142     C
C      0.28836 0.0620794  0.72142     C
C      0.28836 0.721419 0.428139     C
C      0.28836  0.72142 0.0620793     C
C     0.288361 0.0620794 0.428139     C
C     0.288361  0.42814 0.0620793     C
N     0.28917383 0.95961421 0.46784227     N
N     0.28917412 0.46784266 0.78336776     N
N     0.28917427 0.46784216 0.95961583     N
N     0.28917449 0.78336774 0.95961638     N
N     0.28917456 0.95961556 0.78336773     N
N     0.28917468 0.78336771 0.46784276     N
C     0.290369  0.59115 0.921189     C
C     0.290369 0.697289 0.921189     C
C     0.290369  0.92119 0.697289     C
C      0.29037  0.59115 0.697289     C
C      0.29037  0.69729 0.591149     C
C      0.29037 0.921189 0.591149     C
C     0.290759   0.5476  0.70734     C
C     0.290759 0.707339 0.547601     C
C     0.290759  0.70734 0.954299     C
C     0.290759 0.954299 0.547601     C
C     0.290759   0.9543  0.70734     C
C      0.29076   0.5476 0.954299     C
O     0.291569  0.25551 0.0966895     O
O     0.291569 0.255511 0.856229     O
O      0.29157 0.0966894 0.856229     O
O      0.29157 0.0966904 0.255509     O
O      0.29157 0.856229 0.0966895     O
O      0.29157 0.856229 0.255509     O
O     0.292319 0.115259 0.337221     O
O     0.292319  0.11526 0.755199     O
O     0.292319  0.33722  0.11526     O
O     0.292319   0.7552 0.337221     O
O      0.29232  0.33722 0.755199     O
O      0.29232 0.755199  0.11526     O
C      0.29266 0.0456997   0.4524     C
C      0.29266 0.0457004  0.70924     C
C      0.29266 0.452399   0.0457     C
C      0.29266   0.4524  0.70924     C
C      0.29266  0.70924   0.0457     C
C      0.29266  0.70924   0.4524     C
F     0.293579 0.293579 0.168561     F
F      0.29358 0.168561 0.744279     F
F      0.29358 0.744279 0.168561     F
O      0.29603  0.10405 0.296031     O
O      0.29603  0.10405 0.803889     O
O      0.29603 0.296029 0.104051     O
O      0.29603 0.296029 0.803889     O
O      0.29603 0.803889 0.104051     O
O      0.29603 0.803889 0.296031     O
O     0.299299  0.74576 0.969719     O
O     0.299299  0.96972 0.745761     O
O       0.2993 0.485219 0.745761     O
O       0.2993 0.485219 0.969719     O
O       0.2993  0.74576 0.485219     O
O       0.2993  0.96972 0.485219     O
Cr    0.299318 0.133321  0.29932    Cr
Cr    0.299319 0.299319 0.133321    Cr
Cr    0.299319 0.299321 0.768039    Cr
Cr     0.29932  0.13332 0.768039    Cr
Cr     0.29932 0.768039 0.133321    Cr
Cr     0.29932 0.768039  0.29932    Cr
H     0.29972063 0.25002546 0.75366257     H
H     0.29972071 0.75366315 0.2500261     H
H     0.29972561 0.1965881 0.25002573     H
C     0.301979 0.00744077    0.339     C
C      0.30198 0.00743989 0.851579     C
C      0.30198    0.339 0.851579     C
C      0.30198 0.339001 0.0074393     C
C      0.30198 0.851579 0.0074393     C
C      0.30198 0.851579    0.339     C
C     0.302199 0.724899 0.383681     C
C       0.3022 0.0892189   0.7249     C
C       0.3022 0.0892195 0.383681     C
C       0.3022 0.383679   0.7249     C
C       0.3022  0.38368 0.089219     C
C       0.3022   0.7249 0.089219     C
H     0.302381 0.369369 0.969361     H
H     0.302381 0.858888 0.369369     H
H     0.302381 0.969361 0.369369     H
H     0.302382 0.369369 0.858888     H
H     0.302382 0.858888 0.969361     H
H     0.302382  0.96936 0.858888     H
C     0.302709  0.40885  0.70963     C
C     0.302709  0.70963  0.40885     C
C      0.30271 0.0788095  0.70963     C
C      0.30271 0.0788103  0.40885     C
C      0.30271 0.408849 0.0788095     C
C      0.30271 0.709631 0.0788095     C
O      0.30366 0.0507802   0.4625     O
O      0.30366   0.4625 0.683059     O
O     0.303661 0.0507798 0.683059     O
O     0.303661 0.462499 0.050779     O
O     0.303661 0.683059   0.4625     O
O     0.303661  0.68306 0.050779     O
C     0.305299   0.0479   0.3053     C
C     0.305299 0.305299 0.0479004     C
C       0.3053 0.0478996 0.841499     C
C       0.3053 0.305301 0.841499     C
C       0.3053 0.841499 0.0479004     C
C       0.3053 0.841499   0.3053     C
O     0.305649 0.259089 0.150451     O
O     0.305649  0.78481 0.150451     O
O      0.30565  0.15045 0.259089     O
O      0.30565  0.15045 0.784809     O
O      0.30565 0.784811 0.259089     O
O     0.305651  0.25909 0.784809     O
H     0.306067 0.444811 0.824999     H
H     0.306067 0.824997 0.924123     H
H     0.306067 0.924121 0.824999     H
H     0.306068 0.444811 0.924123     H
H     0.306068 0.824998 0.444811     H
H     0.306068 0.924122 0.444811     H
C     0.310409  0.17079 0.214491     C
C     0.310409  0.17079  0.80431     C
C     0.310409  0.80431  0.17079     C
C      0.31041 0.214489  0.17079     C
C      0.31041  0.21449  0.80431     C
C      0.31041 0.804309 0.214491     C
H     0.31044754 0.05442156 0.54085776     H
H     0.3104491 0.54085599 0.59426941     H
H     0.31045101 0.54085517 0.05442393     H
H     0.310693 0.586788  0.68611     H
H     0.310693 0.586788 0.916408     H
H     0.310693 0.686108 0.586789     H
H     0.310693 0.916407 0.586789     H
H     0.310694 0.686108 0.916408     H
H     0.310694 0.916407  0.68611     H
C     0.311029 0.236969  0.80369     C
C     0.311029  0.80369  0.23697     C
C      0.31103  0.14831  0.23697     C
C      0.31103 0.148311  0.80369     C
C      0.31103 0.236969 0.148311     C
C     0.311031 0.803689 0.148311     C
C     0.312749 0.312751 0.854109     C
C      0.31275 0.0203898 0.312749     C
C      0.31275 0.0203909 0.854109     C
C      0.31275 0.312749 0.0203904     C
C      0.31275 0.854109 0.0203904     C
C      0.31275 0.854109 0.312749     C
C     0.313199  0.21434  0.78062     C
C     0.313199  0.78062  0.21434     C
C       0.3132  0.19184  0.21434     C
C       0.3132  0.19184  0.78062     C
C       0.3132  0.21434 0.191839     C
C       0.3132  0.78062 0.191839     C
C     0.313289  0.35069  0.97961     C
C     0.313289 0.979609  0.35069     C
C      0.31329  0.35069 0.856409     C
C      0.31329 0.856408  0.97961     C
C      0.31329 0.856409  0.35069     C
C      0.31329 0.979609 0.856409     C
C      0.31358  0.46194  0.78314     C
C      0.31358  0.46194  0.94134     C
C      0.31358  0.78314  0.94134     C
C      0.31358 0.941339  0.46194     C
C      0.31358 0.941339  0.78314     C
C     0.313581 0.783139  0.46194     C
H     0.313889 0.0835923 0.689306     H
H      0.31389 0.689305 0.0835923     H
H     0.313891 0.0835911 0.413212     H
H     0.313891 0.413211 0.0835923     H
H     0.313891 0.413212 0.689306     H
H     0.313891 0.689305 0.413212     H
H      0.31447 0.100357 0.368048     H
H      0.31447 0.368048 0.100356     H
H      0.31447 0.368048 0.717124     H
H      0.31447 0.717125 0.368048     H
H     0.314471 0.100356 0.717124     H
H     0.314471 0.717125 0.100356     H
H     0.315231  0.19046  0.76337     H
H     0.315231 0.230939 0.190459     H
H     0.315232  0.76337 0.190459     H
N     0.31584528 0.23555392 0.7581342     N
N     0.31584534 0.75813468 0.23555436     N
N     0.31584904 0.19046375 0.23555322     N
O     0.316229  6.5e-07      0.5     O
O     0.316229      0.5      0.0     O
O     0.316229 0.500001 0.683769     O
O      0.31623 0.683769      0.5     O
O      0.31623  0.68377      0.0     O
O     0.316231  2.9e-07 0.683769     O
O     0.316939   0.5375  0.69634     O
O     0.316939   0.5375  0.94922     O
O     0.316939  0.69634 0.537499     O
O      0.31694 0.949219 0.537499     O
O     0.316941 0.696339  0.94922     O
O     0.316941 0.949219  0.69634     O
C     0.320029 0.822789 0.167331     C
C      0.32003  0.16733 0.189849     C
C      0.32003  0.16733 0.822789     C
C      0.32003 0.189849 0.167331     C
C      0.32003 0.189851 0.822789     C
C      0.32003 0.822789 0.189849     C
Cr    0.320349 0.0356298  0.65383    Cr
Cr    0.320349  0.65383 0.0356295    Cr
Cr     0.32035 0.0356299 0.490189    Cr
Cr     0.32035  0.49019  0.65383    Cr
Cr    0.320351 0.490189 0.0356295    Cr
Cr    0.320351 0.653829 0.490189    Cr
C     0.320789  0.44757  0.80621     C
C     0.320789  0.80621  0.92543     C
C      0.32079  0.44757  0.92543     C
C      0.32079 0.806208 0.447571     C
C      0.32079 0.925428  0.80621     C
C      0.32079 0.925429 0.447571     C
Cr    0.321879 0.0932003   0.2612    Cr
Cr    0.321879 0.261199 0.0932008    Cr
Cr    0.321879   0.2612  0.82372    Cr
Cr     0.32188 0.0932004  0.82372    Cr
Cr     0.32188 0.823719   0.2612    Cr
Cr     0.32188  0.82372 0.0932008    Cr
C     0.322649 0.483929  0.73919     C
C     0.322649 0.954229  0.73919     C
C      0.32265 0.739189 0.483929     C
C      0.32265 0.739189 0.954229     C
C     0.322651 0.483929 0.954229     C
C     0.322651 0.954229 0.483929     C
O     0.325299  0.23226 0.816059     O
O     0.325299  0.81606 0.232259     O
O       0.3253  0.12638 0.816059     O
O       0.3253  0.23226  0.12638     O
O       0.3253 0.816059  0.12638     O
O     0.325301  0.12638 0.232259     O
O      0.32532 0.0564598 0.830779     O
O      0.32532 0.056461 0.287439     O
O      0.32532 0.287441 0.0564604     O
O      0.32532 0.287441 0.830779     O
O      0.32532 0.830779 0.0564604     O
O      0.32532  0.83078 0.287439     O
H     0.326812 0.148276 0.835818     H
H     0.326812 0.189095 0.835818     H
H     0.326812 0.835818 0.148275     H
H     0.326812 0.835818 0.189093     H
H     0.326813 0.148275 0.189093     H
H     0.326813 0.189093 0.148275     H
F     0.328039  0.62144 0.483561     F
O     0.329039  0.01694  0.52218     O
O     0.329039 0.522179 0.0169406     O
O      0.32904 0.0169406  0.63184     O
O      0.32904  0.52218  0.63184     O
O      0.32904 0.631839 0.0169406     O
O     0.329041 0.631839  0.52218     O
N     0.32926457 0.04437761 0.54056345     N
N     0.32926581 0.54056258 0.58579087     N
N     0.3292676 0.54056206 0.0443786     N
H     0.330611 0.0390286 0.585493     H
H     0.330611 0.585493 0.0390286     H
H     0.330611 0.585494 0.544866     H
C     0.332089  0.47009  0.75983     C
C      0.33209  0.47009  0.93799     C
C      0.33209 0.759829 0.470089     C
C      0.33209  0.75983  0.93799     C
C      0.33209 0.937989  0.75983     C
C      0.33209  0.93799 0.470089     C
H     0.33392588 0.23676223 0.74598589     H
H     0.33392595 0.74598663 0.23676279     H
H     0.33393046 0.18332217 0.23676005     H
O     0.334828  0.36839  0.92405     O
O     0.334828  0.92405 0.368391     O
O      0.33483  0.36839  0.87273     O
O      0.33483 0.872729  0.92405     O
O      0.33483  0.87273 0.368391     O
O     0.334831 0.924049  0.87273     O
C     0.335079 0.0212395   0.5603     C
C     0.335079 0.560299  0.58338     C
C     0.335079  0.58338   0.5603     C
C      0.33508  0.02124  0.58338     C
C      0.33508 0.560299 0.0212401     C
C      0.33508  0.58338 0.0212401     C
Cr      0.3364 0.391239  0.88618    Cr
Cr      0.3364 0.886178 0.391241    Cr
Cr      0.3364 0.886179  0.88618    Cr
O     0.336459  0.84968   0.4177     O
O     0.336459  0.89616   0.4177     O
O      0.33646 0.417699  0.89616     O
O      0.33646   0.4177 0.849679     O
O      0.33646  0.84968  0.89616     O
O      0.33646  0.89616 0.849679     O
O      0.33722 0.115259  0.29232     O
O      0.33722  0.29232  0.11526     O
O      0.33722  0.29232 0.755199     O
O      0.33722 0.755201  0.29232     O
O     0.337221  0.11526 0.755199     O
O     0.337221 0.755199  0.11526     O
C     0.338159  0.85792 0.965759     C
C     0.338159  0.96576  0.33816     C
C     0.338159  0.96576 0.857919     C
C      0.33816  0.33816 0.857919     C
C      0.33816 0.338161 0.965759     C
C      0.33816 0.857919  0.33816     C
O     0.338389  0.48645  0.95913     O
O     0.338389 0.486451 0.716029     O
O     0.338389 0.716031 0.486449     O
O      0.33839 0.716029  0.95913     O
O      0.33839  0.95913 0.486449     O
O     0.338391 0.959129 0.716029     O
H      0.33856 0.582106 0.957807     H
H      0.33856 0.582108 0.621524     H
H      0.33856 0.621523 0.582108     H
H      0.33856 0.621525 0.957807     H
H      0.33856 0.957807 0.582108     H
H      0.33856 0.957807 0.621524     H
C     0.338999  0.85158 0.301981     C
C        0.339 0.00743965 0.301981     C
C        0.339  0.30198 0.0074393     C
C        0.339 0.301981 0.851579     C
C     0.339001 0.00743989 0.851579     C
C     0.339001 0.851579 0.0074393     C
C      0.33974   0.5816 0.604199     C
C      0.33974   0.5816 0.974459     C
C      0.33974 0.604199 0.974459     C
C      0.33974  0.97446 0.581599     C
C      0.33974  0.97446 0.604199     C
C     0.339741   0.6042 0.581599     C
C     0.341299  0.60388  0.55834     C
C     0.341299 0.603881 0.996479     C
C     0.341299 0.996479  0.60388     C
C       0.3413 0.558339  0.60388     C
C       0.3413 0.558339 0.996479     C
C       0.3413 0.996479  0.55834     C
C     0.343039  0.62608 0.534359     C
C     0.343039  0.99652 0.534359     C
C      0.34304 0.534359 0.626079     C
C      0.34304 0.534359  0.99652     C
C      0.34304 0.626079  0.99652     C
C     0.343041 0.996519 0.626079     C
H     0.34378397 0.05143575 0.52568126     H
H     0.34378583 0.52568137 0.57909427     H
H     0.34378807 0.52568078 0.05143564     H
F      0.34455 0.0779908  0.23371     F
Cr    0.346169  0.67965  0.50981    Cr
Cr     0.34617  0.50981 0.679649    Cr
Cr     0.34617  0.50981 0.964369    Cr
Cr     0.34617 0.964369  0.50981    Cr
Cr     0.34617  0.96437 0.679649    Cr
Cr    0.346171 0.679649 0.964369    Cr
C     0.346389  0.87013 0.937089     C
C      0.34639  0.34639  0.87013     C
C      0.34639 0.346391 0.937089     C
C      0.34639 0.870129 0.346391     C
C      0.34639 0.937089 0.346391     C
C      0.34639 0.937089  0.87013     C
C     0.347699 0.804079   0.9113     C
C     0.347699 0.911299  0.80408     C
C       0.3477 0.436919   0.9113     C
C       0.3477 0.911299 0.436919     C
C     0.347701 0.436919  0.80408     C
C     0.347701 0.804079 0.436919     C
O     0.349189  0.64465  0.53087     O
O      0.34919  0.53087 0.644649     O
O      0.34919  0.53087 0.975289     O
O      0.34919 0.975289  0.53087     O
O     0.349191  0.64465 0.975289     O
O     0.349191 0.975289 0.644649     O
O     0.349299 0.0889404 0.789599     O
O     0.349299   0.7896 0.0889403     O
O       0.3493 0.0889408 0.272159     O
O       0.3493  0.27216 0.0889403     O
O       0.3493  0.27216 0.789599     O
O       0.3493 0.789599 0.272159     O
H     0.350609 0.0185085 0.845925     H
H     0.350609 0.845925 0.0185076     H
H     0.350609 0.845926 0.284956     H
H      0.35061 0.0185076 0.284956     H
H      0.35061 0.284956 0.0185076     H
H      0.35061 0.284956 0.845925     H
C     0.350688  0.31329  0.97961     C
C     0.350688  0.97961 0.313291     C
C     0.350689 0.856408  0.97961     C
C     0.350689 0.856409 0.313291     C
C      0.35069 0.313291 0.856409     C
C      0.35069 0.979609 0.856409     C
H     0.35331266 0.33643591 0.71580177     H
H     0.35331616 0.7157953 0.33643628     H
H     0.35331638 0.09444034 0.71580188     H
H     0.35331744 0.71579865 0.09444289     H
H     0.3533175 0.33644136 0.09444193     H
H     0.35331764 0.09444552 0.33643795     H
C     0.353499   0.4259  0.82792     C
C     0.353499  0.82792 0.892679     C
C     0.353499 0.892679  0.82792     C
C       0.3535 0.425901 0.892679     C
C       0.3535 0.827919   0.4259     C
C       0.3535 0.892679   0.4259     C
C     0.353899 0.765779   0.2835     C
C       0.3539 0.0968196   0.2835     C
C       0.3539   0.2835 0.0968201     C
C       0.3539   0.2835 0.765779     C
C       0.3539  0.76578 0.0968201     C
C     0.353901  0.09682 0.765779     C
O      0.35535 0.0247094 0.650809     O
O      0.35535 0.0247098  0.46913     O
O      0.35535  0.46913 0.650809     O
O      0.35535 0.650809 0.0247093     O
O      0.35535 0.650809  0.46913     O
O     0.355351 0.469129 0.0247093     O
H     0.35949986 0.31172551 0.705565     H
H     0.35949995 0.12320297 0.70556304     H
H     0.3595016 0.31173273 0.12320388     H
H     0.35950235 0.70556132 0.12320435     H
H     0.35950354 0.12320614 0.31172781     H
H     0.35950472 0.70556056 0.31172381     H
C     0.359589 0.456329  0.92735     C
C     0.359589  0.45633 0.756729     C
C     0.359589  0.75673 0.456329     C
C      0.35959  0.75673  0.92735     C
C      0.35959  0.92735 0.456329     C
C     0.359591 0.927349 0.756729     C
H     0.3599704 0.67952443 0.41232252     H
H     0.35997126 0.04818134 0.41232282     H
H     0.35997168 0.67952805 0.04818026     H
H     0.35997238 0.41232032 0.04818077     H
H     0.35997277 0.41231654 0.67952567     H
H     0.35997295 0.04818126 0.6795259     H
N     0.36376557 0.31817612 0.71451962     N
N     0.36376723 0.10353202 0.71451894     N
N     0.36376824 0.31818129 0.10353296     N
N     0.3637685 0.71451713 0.10353348     N
N     0.36376889 0.71451536 0.31817563     N
N     0.36376927 0.10353526 0.31817771     N
C     0.367209  0.44335  0.91045     C
C     0.367209 0.778989  0.91045     C
C      0.36721 0.778991 0.443349     C
C      0.36721 0.910449 0.443349     C
C      0.36721 0.910449 0.778989     C
C     0.367211 0.443349 0.778989     C
O     0.368159  0.67096  0.98306     O
O     0.368159 0.670961 0.477819     O
O      0.36816 0.477819  0.67096     O
O      0.36816 0.477819  0.98306     O
O      0.36816 0.983058  0.67096     O
O     0.368161 0.983059 0.477819     O
O     0.368389  0.87273 0.334829     O
O      0.36839 0.334829  0.87273     O
O      0.36839 0.334829  0.92405     O
O      0.36839 0.872729  0.92405     O
O      0.36839 0.924049  0.87273     O
O      0.36839  0.92405 0.334829     O
H     0.369368 0.302382 0.858888     H
H     0.369368 0.302382 0.969361     H
H     0.369368 0.969361  0.30238     H
H     0.369369 0.858888  0.30238     H
H     0.369369 0.858888 0.969361     H
H     0.369369  0.96936 0.858888     H
H     0.37036658 0.64516862 0.06174988     H
H     0.37036665 0.6451648 0.42271892     H
H     0.37036778 0.42271573 0.06174946     H
H     0.37036791 0.06174849 0.42271862     H
H     0.37036848 0.42271225 0.64516613     H
H     0.3703685 0.06174968 0.64516638     H
N     0.37343389 0.6617821 0.41775799     N
N     0.37343433 0.66178509 0.04702486     N
N     0.37343494 0.04702478 0.41775799     N
N     0.3734353 0.41775602 0.0470249     N
N     0.37343543 0.4177531 0.66178304     N
N     0.37343577 0.04702507 0.66178322     N
H      0.37363 0.737828 0.456171     H
H     0.373631 0.456171 0.737828     H
H     0.373631 0.456172 0.932369     H
H     0.373631 0.737827 0.932369     H
H     0.373631 0.932368 0.737828     H
H     0.373631 0.932369 0.456171     H
O     0.373669  0.87633 0.373671     O
O     0.373669  0.87633 0.876329     O
O      0.37367 0.373671 0.876329     O
C     0.373919  0.46564 0.0034809     C
C      0.37392 0.00347896 0.656961     C
C      0.37392 0.00347936  0.46564     C
C      0.37392 0.465639 0.656961     C
C      0.37392 0.656959 0.0034809     C
C      0.37392 0.656959  0.46564     C
O      0.37616  0.42134  0.82762     O
O      0.37616  0.42134 0.874879     O
O      0.37616  0.82762 0.421339     O
O      0.37616  0.87488 0.421339     O
O      0.37616  0.87488  0.82762     O
O     0.376161 0.827619 0.874879     O
F      0.37856  0.51644  0.67196     F
C      0.37886    0.085  0.28536     C
C      0.37886 0.0850009 0.750779     C
C      0.37886  0.28536 0.0849995     C
C      0.37886  0.75078 0.0849995     C
C      0.37886  0.75078  0.28536     C
C     0.378861 0.285359 0.750779     C
C     0.383679 0.302199   0.7249     C
C      0.38368 0.0892189   0.7249     C
C      0.38368 0.302201 0.089219     C
C      0.38368 0.724899 0.302199     C
C      0.38368   0.7249 0.089219     C
C     0.383681 0.0892196 0.302199     C
H     0.386885  0.43862 0.897597     H
H     0.386886 0.438619 0.776896     H
H     0.386886 0.776896 0.438619     H
H     0.386886 0.897598 0.438619     H
H     0.386886 0.897599 0.776896     H
H     0.386887 0.776896 0.897597     H
Cr    0.391239   0.3364  0.88618    Cr
Cr    0.391239 0.886179   0.3364    Cr
Cr     0.39124 0.886179  0.88618    Cr
H     0.391464 0.784211 0.263414     H
H     0.391465 0.0609101 0.263414     H
H     0.391465 0.263413  0.78421     H
H     0.391465 0.263415 0.0609099     H
H     0.391466  0.06091  0.78421     H
H     0.391466  0.78421 0.0609099     H
F     0.392889  0.29973 0.903689     F
F      0.39289 0.903689  0.29973     F
Cr    0.395789  0.39579  0.85421    Cr
Cr    0.395789 0.854209  0.85421    Cr
Cr     0.39579 0.854209  0.39579    Cr
C     0.395799 0.418399  0.66026     C
C     0.395799  0.66026   0.4184     C
C     0.395799 0.660261 0.0255396     C
C       0.3958 0.0255393  0.66026     C
C       0.3958 0.0255397   0.4184     C
C       0.3958   0.4184 0.0255396     C
C     0.396119 0.00352055 0.658699     C
C     0.396119 0.658699 0.00351988     C
C      0.39612 0.441661 0.658699     C
C     0.396121  0.00352 0.441659     C
C     0.396121  0.44166 0.00351988     C
C     0.396121   0.6587 0.441659     C
C      0.39702 0.273299 0.763619     C
C      0.39702 0.763619 0.273299     C
C     0.397021 0.0660593 0.763619     C
C     0.397021 0.0660603 0.273299     C
C     0.397021   0.2733 0.0660591     C
C     0.397021 0.763619 0.0660591     C
C     0.408849 0.0788106  0.30271     C
C     0.408849  0.30271  0.70963     C
C     0.408849  0.70963  0.30271     C
C     0.408849 0.709631 0.0788095     C
C      0.40885 0.0788095  0.70963     C
C      0.40885  0.30271 0.0788095     C
H      0.41321 0.0835923 0.689306     H
H     0.413211 0.0835913 0.313891     H
H     0.413211  0.31389 0.0835923     H
H     0.413211  0.31389 0.689306     H
H     0.413211 0.689305 0.0835923     H
H     0.413211 0.689305 0.313891     H
H     0.414505 0.455133 0.669389     H
H     0.414505 0.960971 0.669389     H
H     0.414506 0.455133  0.96097     H
H     0.414506 0.669388 0.455133     H
H     0.414506 0.669389  0.96097     H
H     0.414506 0.960971 0.455133     H
C     0.416619 0.439699  0.66492     C
C      0.41662 0.664918   0.4397     C
C      0.41662 0.664921 0.978759     C
C      0.41662 0.978759   0.4397     C
C      0.41662  0.97876  0.66492     C
C     0.416621   0.4397 0.978759     C
F     0.417629  0.83237  0.83237     F
O       0.4177  0.33646  0.89616     O
O       0.4177  0.84968  0.33646     O
O       0.4177  0.84968  0.89616     O
O       0.4177  0.89616 0.849679     O
O     0.417701  0.33646 0.849679     O
O     0.417701 0.896159  0.33646     O
H     0.417893 0.0421911 0.661439     H
H     0.417893 0.0421923 0.378475     H
H     0.417893 0.378475 0.661439     H
H     0.417893 0.378476 0.0421918     H
H     0.417893 0.661439 0.0421918     H
H     0.417893 0.661439 0.378475     H
C     0.418399 0.395799  0.66026     C
C     0.418399  0.66026 0.395799     C
C       0.4184 0.0255393  0.66026     C
C       0.4184   0.3958 0.0255396     C
C       0.4184 0.660261 0.0255396     C
C     0.418401 0.0255393 0.395799     C
H     0.41977882 0.40611441 0.8998144     H
H     0.41978041 0.77428592 0.89981542     H
H     0.41978049 0.89981279 0.40611605     H
H     0.41978238 0.89981346 0.77428564     H
H     0.41978377 0.77428754 0.40611678     H
H     0.41978739 0.4061176 0.77428542     H
O     0.421339  0.37616  0.82762     O
O     0.421339 0.376161 0.874879     O
O     0.421339  0.82762 0.376159     O
O     0.421339  0.87488  0.82762     O
O      0.42134 0.827619 0.874879     O
O      0.42134 0.874879 0.376159     O
C      0.42213 0.054449  0.27471     C
C      0.42213 0.0544492 0.748709     C
C      0.42213  0.27471 0.748709     C
C      0.42213 0.748709 0.054449     C
C      0.42213 0.748709  0.27471     C
C     0.422131  0.27471 0.054449     C
C     0.425899 0.353499  0.82792     C
C     0.425899  0.82792   0.3535     C
C     0.425899  0.82792 0.892679     C
C     0.425899 0.892679  0.82792     C
C     0.425899  0.89268   0.3535     C
C       0.4259   0.3535 0.892679     C
C      0.42814 0.0620794  0.72142     C
C      0.42814 0.0620803 0.288359     C
C      0.42814  0.28836  0.72142     C
C      0.42814 0.288361 0.0620793     C
C      0.42814  0.72142 0.0620793     C
C      0.42814  0.72142 0.288359     C
H       0.4365 0.0400525 0.757848     H
H       0.4365   0.2656 0.757848     H
H       0.4365 0.757849 0.265599     H
H     0.436501 0.0400517 0.265599     H
H     0.436501 0.265599 0.0400518     H
H     0.436501 0.757847 0.0400518     H
C     0.436919 0.347699  0.80408     C
C     0.436919  0.80408   0.3477     C
C     0.436919   0.9113   0.3477     C
C      0.43692 0.347699   0.9113     C
C      0.43692 0.804079   0.9113     C
C      0.43692 0.911299  0.80408     C
N     0.43721934 0.39259022 0.89384415     N
N     0.4372205 0.89384284 0.39259121     N
N     0.43722058 0.77634062 0.893845     N
N     0.43722233 0.89384349 0.77634054     N
N     0.43722341 0.77634254 0.39259104     N
N     0.43722658 0.39259077 0.77634073     N
C     0.439699  0.41662  0.66492     C
C     0.439699  0.66492 0.416621     C
C     0.439699 0.978759 0.416621     C
C     0.439699  0.97876  0.66492     C
C       0.4397 0.416619 0.978759     C
C       0.4397 0.664921 0.978759     C
C     0.441659  0.39612 0.00351988     C
C      0.44166 0.00352024 0.396119     C
C      0.44166 0.00352055 0.658699     C
C      0.44166 0.396119 0.658699     C
C      0.44166   0.6587 0.396119     C
C     0.441661 0.658699 0.00351988     C
C     0.443349 0.367209  0.91045     C
C     0.443349 0.778989  0.91045     C
C     0.443349 0.910449  0.36721     C
C      0.44335  0.77899  0.36721     C
C      0.44335 0.910449 0.778989     C
C     0.443351  0.36721 0.778989     C
H     0.444811 0.306067 0.824999     H
H     0.444811 0.824997 0.306068     H
H     0.444811 0.924123 0.306068     H
H     0.444812 0.306066 0.924123     H
H     0.444812 0.824997 0.924123     H
H     0.444812 0.924121 0.824999     H
C     0.447568  0.80621  0.92543     C
C     0.447569  0.32079  0.80621     C
C     0.447569  0.32079  0.92543     C
C     0.447569 0.925428  0.80621     C
C      0.44757 0.806209 0.320791     C
C      0.44757  0.92543 0.320791     C
H     0.45012923 0.39782607 0.87560001     H
H     0.45013075 0.87559876 0.39782639     H
H     0.45013106 0.77643781 0.87560131     H
H     0.45013314 0.87559988 0.77643788     H
H     0.45013472 0.77644071 0.39782519     H
H     0.45013902 0.39782363 0.77643861     H
C     0.452399 0.0457001 0.292661     C
C     0.452399 0.0457004  0.70924     C
C     0.452399  0.29266  0.70924     C
C     0.452399  0.70924   0.0457     C
C       0.4524 0.292659   0.0457     C
C       0.4524 0.709239 0.292661     C
H     0.455133 0.414505 0.669389     H
H     0.455133 0.669388 0.414506     H
H     0.455134 0.669389  0.96097     H
H     0.455134 0.960971 0.414506     H
H     0.455134 0.960971 0.669389     H
H     0.455135 0.414506  0.96097     H
H     0.456171 0.373629 0.737828     H
H     0.456171 0.373631 0.932369     H
H     0.456171  0.93237  0.37363     H
H     0.456172 0.737827  0.37363     H
H     0.456172 0.932368 0.737828     H
H     0.456173 0.737827 0.932369     H
C     0.456329  0.75673  0.92735     C
C      0.45633 0.359589 0.756729     C
C      0.45633 0.359589  0.92735     C
C      0.45633  0.75673 0.359589     C
C      0.45633 0.927349 0.359589     C
C      0.45633 0.927349 0.756729     C
C     0.461939 0.313579  0.78314     C
C     0.461939  0.31358  0.94134     C
C     0.461939 0.941339 0.313579     C
C      0.46194 0.783139 0.313579     C
C      0.46194  0.78314  0.94134     C
C      0.46194 0.941339  0.78314     C
O     0.462499 0.0507798 0.683059     O
O     0.462499  0.30366 0.683059     O
O       0.4625 0.0507807 0.303659     O
O       0.4625  0.30366 0.050779     O
O       0.4625 0.683059 0.303659     O
O       0.4625  0.68306 0.050779     O
O     0.465399 0.0278402 0.281661     O
O     0.465399  0.28166 0.0278394     O
O     0.465399 0.725099 0.281661     O
O       0.4654 0.0278398 0.725099     O
O       0.4654 0.281659 0.725099     O
O       0.4654 0.725099 0.0278394     O
C     0.465639 0.00347896 0.656961     C
C     0.465639 0.00347977  0.37392     C
C     0.465639 0.373919 0.656961     C
C     0.465639  0.37392 0.0034809     C
C     0.465639 0.656959 0.0034809     C
C     0.465639  0.65696  0.37392     C
H     0.466373 0.294589 0.783608     H
H     0.466373 0.783608 0.294588     H
H     0.466374 0.294589 0.955429     H
H     0.466374 0.783607 0.955429     H
H     0.466374 0.955428 0.783608     H
H     0.466374 0.955429 0.294588     H
O     0.469129 0.0247099  0.35535     O
O     0.469129  0.35535 0.650809     O
O     0.469129 0.650809  0.35535     O
O      0.46913  0.35535 0.0247093     O
O     0.469131 0.0247094 0.650809     O
O     0.469131 0.650809 0.0247093     O
C     0.470088  0.75983 0.332091     C
C     0.470089  0.33209  0.75983     C
C     0.470089  0.33209  0.93799     C
C     0.470089 0.937989 0.332091     C
C      0.47009  0.75983  0.93799     C
C      0.47009 0.937989  0.75983     C
O     0.477819 0.368159  0.67096     O
O     0.477819  0.67096  0.98306     O
O     0.477819 0.983058  0.67096     O
O      0.47782 0.368159  0.98306     O
O      0.47782  0.67096 0.368159     O
O      0.47782  0.98306 0.368159     O
F     0.483558 0.328041  0.62144     F
C     0.483929 0.322649  0.73919     C
C     0.483929  0.73919  0.32265     C
C     0.483929 0.954229  0.73919     C
C      0.48393 0.739189 0.954229     C
C      0.48393 0.954229  0.32265     C
C     0.483931 0.322649 0.954229     C
O     0.485219  0.74576 0.969719     O
O     0.485219  0.96972 0.745761     O
O      0.48522   0.2993 0.745761     O
O      0.48522   0.2993 0.969719     O
O     0.485221 0.745759 0.299299     O
O     0.485221 0.969719 0.299299     O
O     0.486449 0.338389  0.95913     O
O     0.486449 0.959129  0.33839     O
O      0.48645 0.716029  0.33839     O
O      0.48645 0.716029  0.95913     O
O     0.486451  0.33839 0.716029     O
O     0.486451 0.959129 0.716029     O
Cr    0.490189 0.0356306  0.32035    Cr
Cr    0.490189 0.320349  0.65383    Cr
Cr    0.490189  0.32035 0.0356295    Cr
Cr    0.490189  0.65383  0.32035    Cr
Cr     0.49019 0.0356298  0.65383    Cr
Cr     0.49019  0.65383 0.0356295    Cr
F     0.499999  2.6e-07  0.74954     F
O     0.499999  2.9e-07 0.683769     O
Cr    0.499999  4.2e-07 0.284101    Cr
Cr    0.499999   0.2841      0.0    Cr
O     0.499999  0.68377      0.0     O
Cr         0.5 0.284099   0.7159    Cr
O          0.5  0.68377  0.31623     O
Cr         0.5 0.715899 0.284101    Cr
O          0.5 0.99999982  0.31623     O
O     0.500001 0.316229      0.0     O
O     0.500001  0.31623 0.683769     O
Cr    0.500001 0.715899      0.0    Cr
Cr    0.500001 0.99999904   0.7159    Cr
Cr     0.50981 0.346171 0.964369    Cr
Cr     0.50981 0.679649  0.34617    Cr
Cr     0.50981 0.679649 0.964369    Cr
Cr     0.50981 0.964369  0.34617    Cr
Cr     0.50981  0.96437 0.679649    Cr
Cr    0.509811 0.346169 0.679649    Cr
O      0.51355 0.0408701  0.28397     O
O      0.51355 0.0408704 0.661609     O
O      0.51355  0.28397 0.0408704     O
O      0.51355 0.661609 0.0408704     O
O      0.51355 0.661609  0.28397     O
O     0.513551  0.28397 0.661609     O
O     0.514779 0.0302803   0.7007     O
O     0.514779 0.0302807  0.25424     O
O     0.514779 0.254241 0.0302795     O
O     0.514779 0.700699 0.0302795     O
O      0.51478  0.25424   0.7007     O
O     0.514781 0.700699  0.25424     O
H     0.51525249 0.72521176 0.21394585     H
H     0.51525355 0.21394623 0.72521288     H
H     0.51525473 0.04558458 0.21394555     H
H     0.51525525 0.21393978 0.04558949     H
H     0.51525701 0.0455867 0.72521414     H
H     0.51525855 0.7252132 0.04558471     H
C      0.51607 0.0457695  0.26081     C
C      0.51607  0.26081 0.0457701     C
C      0.51607 0.260811 0.677349     C
C      0.51607  0.67735 0.0457701     C
C      0.51607  0.67735  0.26081     C
C     0.516071 0.0457705 0.677349     C
F     0.516439  0.67196 0.378561     F
F     0.516439 0.933039 0.378561     F
F      0.51644  0.37856 0.933039     F
F      0.51644 0.671959 0.933039     F
O     0.522179 0.0169402 0.329041     O
O     0.522179 0.0169406  0.63184     O
O     0.522179  0.32904 0.0169406     O
O     0.522179 0.631839 0.0169406     O
O     0.522179 0.631839 0.329041     O
O      0.52218 0.329039  0.63184     O
H     0.52567938 0.34378841 0.05143428     H
H     0.52568017 0.34378924 0.57909503     H
H     0.52568045 0.05143522 0.34379074     H
H     0.52568052 0.57909427 0.05143491     H
H     0.52568149 0.57909131 0.34379063     H
H     0.5256825 0.05143698 0.57909461     H
C     0.529909 0.0620098  0.24017     C
C     0.529909 0.240171 0.0620091     C
C     0.529909 0.667911 0.0620091     C
C      0.52991 0.0620092  0.66791     C
C      0.52991  0.24017  0.66791     C
C      0.52991 0.667909  0.24017     C
O      0.53087  0.34919 0.644649     O
O      0.53087  0.34919 0.975289     O
O      0.53087  0.64465 0.975289     O
O      0.53087 0.644651 0.349189     O
O      0.53087 0.975289 0.644649     O
O      0.53087  0.97529 0.349189     O
N     0.53215479 0.71082533 0.21663226     N
N     0.53215582 0.21663226 0.71082603     N
N     0.53215651 0.04038349 0.21663229     N
N     0.53215689 0.21662747 0.04038712     N
N     0.53215855 0.04038525 0.71082669     N
N     0.53215994 0.71082498 0.04038464     N
C      0.53436 0.343039 0.626079     C
C      0.53436 0.343039  0.99652     C
C      0.53436 0.626079  0.99652     C
C      0.53436  0.62608  0.34304     C
C      0.53436 0.996519 0.626079     C
C      0.53436  0.99652  0.34304     C
O     0.534599 0.274899  0.71834     O
O     0.534599   0.2749 0.972159     O
O     0.534599  0.71834   0.2749     O
O     0.534599 0.972159   0.2749     O
O     0.534599  0.97216  0.71834     O
O       0.5346  0.71834 0.972159     O
O     0.537499  0.31694  0.69634     O
O     0.537499 0.696339  0.94922     O
O     0.537499 0.696341 0.316939     O
O       0.5375  0.31694  0.94922     O
O       0.5375 0.949219 0.316939     O
O       0.5375 0.949219  0.69634     O
C     0.538059 0.0586591  0.21686     C
C     0.538059 0.216859 0.0586608     C
C     0.538059  0.21686  0.68642     C
C     0.538059 0.686419  0.21686     C
C      0.53806  0.05866  0.68642     C
C      0.53806 0.686419 0.0586608     C
N     0.54056104 0.32926785 0.04437761     N
N     0.54056141 0.5857909 0.04437827     N
N     0.54056147 0.32926836 0.585791     N
N     0.54056159 0.04437903 0.32926967     N
N     0.54056226 0.58578804 0.32926959     N
N     0.54056397 0.04437891 0.58579094     N
H     0.54085364 0.59426949 0.05442376     H
H     0.54085377 0.31045135 0.05442257     H
H     0.54085416 0.31045191 0.59426902     H
H     0.54085422 0.05442515 0.31045327     H
H     0.54085501 0.59426536 0.31045316     H
H     0.54085793 0.05442351 0.59426926     H
C     0.543669 0.0726497  0.64041     C
C     0.543669 0.0726506 0.243269     C
C     0.543669  0.24327 0.0726506     C
C     0.543669  0.64041 0.0726506     C
C      0.54367  0.24327  0.64041     C
C      0.54367  0.64041 0.243269     C
H     0.543827 0.0676303 0.262173     H
H     0.543827 0.262172  0.06763     H
H     0.543827 0.626369 0.262173     H
H     0.543828 0.0676296 0.626369     H
H     0.543828 0.262172 0.626369     H
H     0.543828 0.626369  0.06763     H
H     0.54469312 0.71447835 0.21915034     H
H     0.54469486 0.21914996 0.71447842     H
H     0.54469557 0.02167433 0.21915072     H
H     0.54469609 0.21914403 0.02167811     H
H     0.54469815 0.02167638 0.71447897     H
H     0.5447004 0.71447596 0.02167611     H
C     0.547598  0.70734  0.29076     C
C     0.547599  0.29076  0.70734     C
C     0.547599  0.70734 0.954299     C
C     0.547599   0.9543  0.29076     C
C     0.547599   0.9543  0.70734     C
C       0.5476  0.29076 0.954299     C
H     0.54774735 0.75597324 0.23767743     H
H     0.54774811 0.23767946 0.95859722     H
H     0.54774864 0.23767765 0.75597772     H
H     0.54774921 0.75597444 0.95859751     H
H     0.5477498 0.95859397 0.23767744     H
H     0.54775077 0.95859562 0.75597716     H
C     0.552428  0.67921 0.0745704     C
C     0.552429 0.0745689  0.67921     C
C     0.552429  0.19379  0.67921     C
C     0.552429 0.193791 0.0745704     C
C      0.55243 0.0745702  0.19379     C
C      0.55243 0.679209  0.19379     C
H     0.555187 0.0758777 0.693933     H
H     0.555187 0.693932 0.0758782     H
H     0.555188 0.0758772 0.175002     H
H     0.555188 0.175001 0.0758782     H
H     0.555188 0.175001 0.693933     H
H     0.555188 0.693931 0.175002     H
C     0.556649 0.221011 0.632789     C
C     0.556649  0.63279  0.22101     C
C      0.55665 0.0895502 0.632789     C
C      0.55665 0.0895503  0.22101     C
C      0.55665 0.221009 0.0895504     C
C      0.55665  0.63279 0.0895504     C
H     0.55755915 0.2322122 0.72692345     H
H     0.55755963 0.23221633 0.98330468     H
H     0.55755999 0.98330323 0.23221241     H
H     0.55756085 0.72691833 0.98330472     H
H     0.55756146 0.72691735 0.23221308     H
H     0.5575621 0.98330376 0.72692204     H
C     0.558339 0.603881 0.996479     C
C      0.55834 0.341299  0.60388     C
C      0.55834  0.60388   0.3413     C
C      0.55834 0.996479  0.60388     C
C     0.558341   0.3413 0.996479     C
C     0.558341 0.996479   0.3413     C
N     0.55945797 0.23935523 0.73708979     N
N     0.55945822 0.23935767 0.96409673     N
N     0.55945834 0.73708566 0.23935547     N
N     0.55945897 0.96409501 0.23935523     N
N     0.55945907 0.73708646 0.96409685     N
N     0.55946009 0.96409581 0.73708907     N
C     0.560299 0.0212406 0.335081     C
C     0.560299  0.33508 0.0212401     C
C     0.560299  0.33508  0.58338     C
C     0.560299 0.583379 0.335081     C
C     0.560299  0.58338 0.0212401     C
C       0.5603  0.02124  0.58338     C
H     0.561379 0.102402 0.223103     H
H      0.56138 0.223103 0.102402     H
H      0.56138 0.223104 0.613114     H
H     0.561381 0.102402 0.613114     H
H     0.561381 0.613113 0.102402     H
H     0.561381 0.613114 0.223103     H
C     0.563078 0.0887005   0.6523     C
C     0.563079   0.0887 0.195921     C
C     0.563079  0.19592 0.0887006     C
C     0.563079  0.19592   0.6523     C
C     0.563079 0.652299 0.0887006     C
C      0.56308 0.652299 0.195921     C
C     0.571859 0.278579 0.711639     C
C     0.571859 0.711639 0.278579     C
C      0.57186  0.71164 0.937919     C
C     0.571861 0.278579 0.937919     C
C     0.571861 0.937919 0.711639     C
C     0.571861  0.93792 0.278579     C
C     0.574098  0.10732   0.6465     C
C     0.574099  0.17208   0.6465     C
C       0.5741 0.107319  0.17208     C
C       0.5741 0.172081 0.107319     C
C       0.5741 0.646499 0.107319     C
C       0.5741 0.646499  0.17208     C
C     0.577869 0.251289  0.72529     C
C     0.577869 0.725289 0.251289     C
C      0.57787  0.25129  0.94555     C
C      0.57787 0.725289  0.94555     C
C      0.57787  0.94555 0.251289     C
C      0.57787  0.94555  0.72529     C
O     0.578658  0.12512 0.172381     O
O     0.578659  0.17238 0.125119     O
O     0.578659  0.62384 0.172381     O
O      0.57866  0.12512 0.623839     O
O      0.57866  0.17238 0.623839     O
O      0.57866 0.623841 0.125119     O
C     0.581599 0.339741 0.974459     C
C     0.581599 0.974459 0.339741     C
C       0.5816 0.339739 0.604199     C
C       0.5816 0.604199 0.339741     C
C       0.5816  0.97446 0.604199     C
C     0.581601 0.604199 0.974459     C
H     0.582106  0.33856 0.621524     H
H     0.582106  0.33856 0.957807     H
H     0.582106 0.957808 0.338559     H
H     0.582107 0.621524 0.338559     H
H     0.582107 0.621525 0.957807     H
H     0.582108 0.957807 0.621524     H
O     0.582299  0.10384  0.15032     O
O     0.582299 0.150319  0.10384     O
O       0.5823  0.10384  0.66354     O
O       0.5823  0.15032  0.66354     O
O       0.5823 0.663539  0.10384     O
O       0.5823 0.663539  0.15032     O
F     0.582369  0.58237 0.167631     F
C     0.583379 0.0212406 0.335081     C
C     0.583379  0.33508   0.5603     C
C     0.583379   0.5603 0.335081     C
C      0.58338 0.0212395   0.5603     C
C      0.58338  0.33508 0.0212401     C
C     0.583381 0.560299 0.0212401     C
H     0.585493 0.0390291 0.330611     H
H     0.585493 0.330612 0.0390286     H
H     0.585494 0.0390283 0.544866     H
H     0.585494 0.330611 0.544866     H
H     0.585494 0.544866 0.0390286     H
H     0.585494 0.544866 0.330611     H
H     0.586788 0.310694  0.68611     H
H     0.586788 0.310694 0.916408     H
H     0.586788 0.686108 0.916408     H
H     0.586788 0.686109 0.310695     H
H     0.586788 0.916407  0.68611     H
H     0.586788 0.916408 0.310695     H
C     0.591149  0.29037 0.921189     C
C     0.591149  0.69729 0.290371     C
C     0.591149 0.921189 0.290371     C
C     0.591149  0.92119 0.697289     C
C      0.59115 0.290371 0.697289     C
C      0.59115 0.697289 0.921189     C
H     0.59388302 0.58021894 0.10018575     H
H     0.59388321 0.10018456 0.22571179     H
H     0.59388357 0.58021768 0.22571268     H
H     0.59388429 0.22571224 0.58022025     H
H     0.59388472 0.22570862 0.1001854     H
H     0.5938848 0.10018621 0.58022047     H
H     0.60217096 0.12439916 0.22355988     H
H     0.60217135 0.22356002 0.54987016     H
H     0.60217189 0.5498686 0.12440001     H
H     0.60217252 0.22355635 0.12440015     H
H     0.6021733 0.12440042 0.54986996     H
H     0.60217348 0.54986726 0.22355943     H
C      0.60298  0.23638 0.726699     C
C      0.60298  0.23638  0.93394     C
C      0.60298 0.726699  0.93394     C
C      0.60298   0.7267  0.23638     C
C      0.60298 0.933939 0.726699     C
C      0.60298  0.93394  0.23638     C
C      0.60388   0.3413  0.55834     C
C      0.60388   0.3413 0.996479     C
C      0.60388 0.558339 0.996479     C
C      0.60388  0.55834   0.3413     C
C      0.60388 0.996479   0.3413     C
C      0.60388 0.996479  0.55834     C
C     0.604199 0.339741 0.974459     C
C     0.604199   0.5816 0.974459     C
C     0.604199 0.974459 0.339741     C
C     0.604199  0.97446 0.581599     C
C       0.6042 0.339741 0.581599     C
C       0.6042   0.5816 0.339741     C
Cr    0.604209  0.14579 0.604209    Cr
Cr    0.604209 0.604209  0.14579    Cr
Cr     0.60421  0.14579  0.14579    Cr
F     0.607109 0.0963106 0.0963095     F
N     0.60740729 0.10615525 0.22365744     N
N     0.60740755 0.56277878 0.10615602     N
N     0.60740809 0.22365765 0.56277983     N
N     0.60740861 0.56277783 0.2236576     N
N     0.60740867 0.22365472 0.10615594     N
N     0.60740899 0.10615623 0.56277984     N
H     0.608533  0.21579 0.736587     H
H     0.608534 0.736586  0.21579     H
H     0.608535 0.215789 0.939089     H
H     0.608535 0.736586 0.939089     H
H     0.608535 0.939088 0.736587     H
H     0.608535 0.939089  0.21579     H
H     0.60874442 0.69869994 0.15602146     H
H     0.60874453 0.036535 0.69869916     H
H     0.60874459 0.69869838 0.03653579     H
H     0.60874463 0.15602037 0.03653628     H
H     0.60874467 0.15601619 0.69870035     H
H     0.60874567 0.03653615 0.15602149     H
Cr     0.60876  0.11382 0.113819    Cr
Cr     0.60876  0.11382 0.663599    Cr
Cr     0.60876 0.663601 0.113819    Cr
C     0.616319 0.275099  0.91078     C
C     0.616319   0.2751   0.6978     C
C     0.616319 0.697799   0.2751     C
C     0.616319 0.697799  0.91078     C
C     0.616319  0.91078   0.2751     C
C     0.616319  0.91078   0.6978     C
C      0.62114 0.249221 0.714639     C
C      0.62114 0.249221 0.914999     C
C      0.62114 0.714639 0.914999     C
C      0.62114  0.71464  0.24922     C
C      0.62114 0.914999 0.714639     C
C      0.62114    0.915  0.24922     C
F     0.621439 0.0669602 0.328041     F
F     0.621439 0.483561 0.0669596     F
F      0.62144  0.32804 0.0669596     F
H     0.621523 0.338561 0.582108     H
H     0.621523 0.957807 0.582108     H
H     0.621524  0.33856 0.957807     H
H     0.621524 0.582106 0.957807     H
H     0.621524 0.582107 0.338559     H
H     0.621524 0.957808 0.338559     H
O     0.623838  0.12512 0.172381     O
O     0.623839  0.12512  0.57866     O
O     0.623839 0.172379  0.57866     O
O     0.623839  0.17238 0.125119     O
O     0.623839 0.578659 0.125119     O
O     0.623839 0.578659 0.172381     O
H     0.62395457 0.71162872 0.12212257     H
H     0.62395514 0.04229478 0.71162759     H
H     0.62395517 0.7116268 0.04229564     H
H     0.62395539 0.04229626 0.12212256     H
H     0.62395542 0.12212146 0.04229655     H
H     0.62395797 0.12211781 0.71162779     H
N     0.62524333 0.70018459 0.14029116     N
N     0.62524358 0.0342813 0.70018389     N
N     0.62524361 0.70018332 0.0342819     N
N     0.62524372 0.14029035 0.03428241     N
N     0.62524436 0.03428209 0.14029116     N
N     0.62524466 0.14028722 0.7001844     N
C     0.626079  0.34304 0.534359     C
C     0.626079 0.534359  0.34304     C
C     0.626079 0.534359  0.99652     C
C     0.626079  0.99652 0.534359     C
C      0.62608 0.343039  0.99652     C
C      0.62608  0.99652  0.34304     C
O     0.626328 0.123671  0.62633     O
O     0.626329  0.62633 0.123669     O
O      0.62633 0.123669 0.123669     O
H     0.626368 0.0676303 0.262173     H
H     0.626368 0.262172  0.06763     H
H     0.626368 0.262173 0.543827     H
H     0.626368 0.543827 0.262173     H
H     0.626369 0.0676302 0.543827     H
H     0.626369 0.543827  0.06763     H
O     0.631609 0.0759505 0.127269     O
O     0.631609 0.0759507  0.66517     O
O     0.631609  0.12727 0.0759503     O
O     0.631609 0.665169 0.0759503     O
O      0.63161 0.127269  0.66517     O
O      0.63161  0.66517 0.127269     O
O     0.631839 0.0169402 0.329041     O
O     0.631839  0.32904 0.0169406     O
O     0.631839  0.32904  0.52218     O
O     0.631839 0.522179 0.329041     O
O      0.63184  0.01694  0.52218     O
O      0.63184 0.522179 0.0169406     O
H      0.63195 0.282876 0.899643     H
H     0.631951 0.282876 0.685529     H
H     0.631951 0.899644 0.282875     H
H     0.631952 0.685528 0.899643     H
H     0.631952 0.685529 0.282875     H
H     0.631952 0.899642 0.685529     H
C     0.632789 0.0895503  0.22101     C
C     0.632789  0.55665 0.0895504     C
C      0.63279  0.08955  0.55665     C
C      0.63279 0.221009 0.0895504     C
C      0.63279  0.22101  0.55665     C
C      0.63279  0.55665  0.22101     C
C     0.640409 0.543669 0.0726506     C
C      0.64041 0.0726497 0.543669     C
C      0.64041 0.0726506 0.243269     C
C      0.64041  0.24327 0.0726506     C
C      0.64041  0.24327 0.543669     C
C      0.64041  0.54367 0.243269     C
O     0.644649  0.34919  0.53087     O
O      0.64465  0.34919 0.975289     O
O      0.64465 0.530869 0.349189     O
O      0.64465  0.53087 0.975289     O
O      0.64465 0.975289  0.53087     O
O      0.64465  0.97529 0.349189     O
H     0.64516118 0.37036968 0.06174852     H
H     0.64516249 0.06174874 0.42271852     H
H     0.64516502 0.37036788 0.42271813     H
C     0.646099  0.23422   0.7165     C
C       0.6461 0.716499  0.23422     C
C       0.6461 0.716501 0.903179     C
C       0.6461 0.903179  0.23422     C
C       0.6461 0.903179   0.7165     C
C     0.646101  0.23422 0.903179     C
C     0.646499  0.10732 0.574099     C
C     0.646499   0.5741 0.107319     C
C       0.6465 0.107319  0.17208     C
C       0.6465  0.17208 0.574099     C
C       0.6465 0.172081 0.107319     C
C       0.6465 0.574099  0.17208     C
C     0.649309 0.0203904  0.68671     C
C     0.649309 0.143589  0.68671     C
C     0.649309  0.14359 0.0203904     C
C     0.649309  0.68671 0.0203904     C
C     0.649309  0.68671  0.14359     C
C      0.64931 0.0203898  0.14359     C
H      0.64939 0.154072 0.715044     H
H      0.64939 0.154074 0.981491     H
H      0.64939 0.715044 0.154074     H
H      0.64939 0.981491 0.154074     H
H     0.649391 0.715043 0.981491     H
H     0.649391 0.981491 0.715044     H
O     0.650699   0.2104  0.72784     O
O     0.650699   0.2104  0.91106     O
O     0.650699 0.727839  0.91106     O
O     0.650699  0.91106  0.72784     O
O       0.6507 0.727839   0.2104     O
O       0.6507 0.911059   0.2104     O
O     0.650809 0.0247098  0.46913     O
O     0.650809 0.355349  0.46913     O
O      0.65081 0.0247099  0.35535     O
O      0.65081  0.35535 0.0247093     O
O      0.65081 0.469129 0.0247093     O
O      0.65081 0.469129  0.35535     O
H     0.65182302 0.81501313 0.86794891     H
H     0.65182586 0.8150134 0.1652103     H
H     0.65182641 0.16520782 0.86794922     H
C     0.652299 0.0887004 0.563079     C
C     0.652299  0.56308 0.0887006     C
C       0.6523   0.0887 0.195921     C
C       0.6523  0.19592 0.0887006     C
C       0.6523  0.19592 0.563079     C
C       0.6523  0.56308 0.195921     C
C     0.653609 0.129871 0.0629096     C
C      0.65361 0.0629097  0.65361     C
C      0.65361 0.0629102 0.129869     C
C      0.65361 0.129869  0.65361     C
C      0.65361  0.65361 0.0629096     C
C     0.653611 0.653609 0.129869     C
Cr     0.65383 0.0356299 0.490189    Cr
Cr     0.65383 0.0356306  0.32035    Cr
Cr     0.65383 0.320349 0.490189    Cr
Cr     0.65383  0.32035 0.0356295    Cr
Cr     0.65383 0.490189 0.0356295    Cr
Cr     0.65383 0.490189  0.32035    Cr
F     0.655449  0.15625 0.766289     F
F     0.655449 0.766289 0.156251     F
C     0.656959  0.46564 0.0034809     C
C     0.656959  0.46564  0.37392     C
C      0.65696 0.00347936  0.46564     C
C      0.65696 0.00347977  0.37392     C
C      0.65696 0.373919  0.46564     C
C      0.65696  0.37392 0.0034809     C
C     0.658699  0.00352 0.441659     C
C     0.658699 0.396121 0.441659     C
C     0.658699  0.44166 0.00351988     C
C       0.6587 0.00352024 0.396119     C
C       0.6587  0.39612 0.00351988     C
C       0.6587  0.44166 0.396119     C
C     0.660259 0.0255397   0.4184     C
C     0.660259   0.3958 0.0255396     C
C      0.66026 0.0255393 0.395799     C
C      0.66026   0.3958   0.4184     C
C      0.66026   0.4184 0.0255396     C
C     0.660261 0.418399 0.395799     C
C     0.660998 0.148421  0.69802     C
C     0.660999  0.69802  0.14842     C
C        0.661  0.14842 0.992559     C
C        0.661 0.992559  0.14842     C
C        0.661 0.992559  0.69802     C
C     0.661001 0.698019 0.992559     C
H     0.661439 0.0421923 0.378475     H
H     0.661439 0.417893 0.0421918     H
H     0.661439 0.417893 0.378475     H
O     0.661609 0.0408701  0.28397     O
O     0.661609  0.28397 0.0408704     O
O     0.661609 0.283971  0.51355     O
O     0.661609  0.51355 0.0408704     O
O     0.661609  0.51355  0.28397     O
O      0.66161 0.0408693  0.51355     O
N     0.66177923 0.37343562 0.04702552     N
N     0.66178015 0.04702524 0.41775797     N
N     0.66178223 0.37343486 0.41775793     N
C     0.661839 0.0342411 0.661839     C
C     0.661839  0.14208 0.661839     C
C     0.661839 0.142081 0.0342399     C
C     0.661839 0.661839  0.14208     C
C     0.661839  0.66184 0.0342399     C
C      0.66184 0.0342392  0.14208     C
O     0.662779 0.707681 0.884739     O
O     0.662779  0.88474 0.707679     O
O      0.66278   0.2448 0.884739     O
O      0.66278 0.244801 0.707679     O
O      0.66278 0.884739 0.244799     O
O     0.662781 0.707679 0.244799     O
O     0.663538 0.150321   0.5823     O
O     0.663539  0.10384   0.5823     O
O     0.663539   0.5823  0.10384     O
O     0.663539 0.582301  0.15032     O
O     0.663541  0.10384  0.15032     O
O     0.663541 0.150319  0.10384     O
Cr    0.663599  0.11382  0.60876    Cr
Cr    0.663599  0.60876 0.113819    Cr
Cr    0.663601  0.11382 0.113819    Cr
H     0.66390836 0.58705826 0.92630007     H
H     0.66390859 0.3227313 0.92630085     H
H     0.66390891 0.92629954 0.32273289     H
H     0.66390982 0.58705431 0.32273338     H
H     0.66391094 0.32273102 0.58705272     H
H     0.66391158 0.92629969 0.58705355     H
C     0.664919   0.4397 0.416621     C
C     0.664919 0.978759 0.416621     C
C     0.664919 0.978759   0.4397     C
C      0.66492 0.416619   0.4397     C
C      0.66492 0.416619 0.978759     C
C      0.66492   0.4397 0.978759     C
O     0.665169  0.63161 0.0759503     O
O      0.66517 0.0759504  0.63161     O
O      0.66517  0.12727 0.0759503     O
O     0.665171 0.0759505 0.127269     O
O     0.665171 0.127269  0.63161     O
O     0.665171  0.63161 0.127269     O
C     0.667909  0.24017  0.52991     C
C     0.667909 0.529909  0.24017     C
C      0.66791 0.0620098  0.24017     C
C      0.66791 0.0620105  0.52991     C
C      0.66791 0.240171 0.0620091     C
C      0.66791 0.529911 0.0620091     C
H     0.669388 0.414507 0.455133     H
H     0.669388 0.455133  0.96097     H
H     0.669388 0.455134 0.414506     H
H     0.669388 0.960971 0.414506     H
H     0.669388 0.960971 0.455133     H
H     0.669389 0.414506  0.96097     H
H     0.67017955 0.10069606 0.4203613     H
H     0.67017972 0.42035773 0.3087673     H
H     0.67018002 0.42035754 0.10069469     H
H     0.67018008 0.10069694 0.30876791     H
H     0.67018013 0.30875951 0.42036072     H
H     0.67018049 0.30876236 0.10069492     H
O      0.67096 0.368159  0.98306     O
O      0.67096  0.36816 0.477819     O
O      0.67096 0.477819  0.98306     O
O      0.67096 0.983059 0.477819     O
O      0.67096  0.98306 0.368159     O
O     0.670961 0.477819 0.368159     O
N     0.67101517 0.81212106 0.85685026     N
N     0.67101782 0.8121211 0.16001016     N
N     0.67101834 0.16000831 0.85684943     N
F     0.671959  0.37856  0.51644     F
F     0.671959  0.93304  0.51644     F
H     0.673187 0.164182 0.810906     H
H     0.673187 0.851723 0.164181     H
H     0.673188 0.851724 0.810906     H
O     0.674678  0.71256  0.94354     O
O     0.674679 0.169219  0.94354     O
O     0.674679 0.943539 0.169219     O
O     0.674679  0.94354 0.712559     O
O      0.67468 0.169221 0.712559     O
O      0.67468  0.71256 0.169219     O
O     0.674699 0.183939  0.87362     O
O       0.6747  0.18394 0.767739     O
O       0.6747 0.767738  0.87362     O
O       0.6747 0.767739  0.18394     O
O       0.6747 0.873619  0.18394     O
O       0.6747 0.873619 0.767739     O
H     0.6772653 0.3360876 0.41294321     H
H     0.67726666 0.07370044 0.41294246     H
H     0.67726758 0.33608931 0.0736986     H
H     0.67726976 0.41293915 0.07369781     H
H     0.67727049 0.41293886 0.33609236     H
H     0.67727052 0.07369978 0.33609299     H
C     0.677349  0.26081 0.0457701     C
C     0.677349  0.26081  0.51607     C
C     0.677349  0.51607  0.26081     C
C      0.67735 0.0457695  0.26081     C
C      0.67735 0.0457697  0.51607     C
C      0.67735  0.51607 0.0457701     C
Cr    0.678119 0.176281 0.738799    Cr
Cr    0.678119 0.738799   0.9068    Cr
Cr     0.67812 0.176281   0.9068    Cr
Cr     0.67812 0.738798 0.176281    Cr
Cr     0.67812 0.906799 0.738799    Cr
Cr     0.67812   0.9068 0.176281    Cr
C     0.679208  0.55243  0.19379     C
C     0.679209 0.0745702  0.19379     C
C     0.679209  0.19379  0.55243     C
C     0.679209 0.193791 0.0745704     C
C      0.67921 0.0745695  0.55243     C
C      0.67921  0.55243 0.0745704     C
H     0.67952093 0.35997137 0.04818342     H
H     0.67952215 0.04818237 0.41232289     H
H     0.67952458 0.35997108 0.41232316     H
Cr    0.679649 0.346171 0.964369    Cr
Cr    0.679649  0.50981 0.964369    Cr
Cr    0.679649 0.964369  0.50981    Cr
Cr     0.67965  0.34617  0.50981    Cr
Cr     0.67965  0.50981  0.34617    Cr
Cr     0.67965 0.964369  0.34617    Cr
C     0.679969 0.810149  0.83267     C
C      0.67997 0.177209  0.83267     C
C      0.67997  0.17721 0.810149     C
C      0.67997 0.810149  0.17721     C
C      0.67997 0.832669  0.17721     C
C      0.67997 0.832669 0.810149     C
N     0.68289209 0.58545421 0.91506498     N
N     0.68289217 0.31658675 0.91506543     N
N     0.68289263 0.91506466 0.31658787     N
N     0.68289347 0.58545085 0.31658811     N
N     0.6828943 0.31658607 0.58545002     N
N     0.68289523 0.91506507 0.58545039     N
O     0.683059 0.0507802   0.4625     O
O      0.68306 0.0507807 0.303659     O
O      0.68306 0.303659   0.4625     O
O      0.68306  0.30366 0.050779     O
O      0.68306 0.462499 0.050779     O
O      0.68306 0.462501 0.303659     O
N     0.68341171 0.31710375 0.41454667     N
N     0.683412 0.08493483 0.41454661     N
N     0.68341295 0.31710569 0.08493353     N
N     0.68341357 0.41454376 0.08493316     N
N     0.68341373 0.41454373 0.31710861     N
N     0.68341387 0.084935 0.31710906     N
H     0.68358928 0.81068659 0.86362398     H
H     0.68359296 0.81068645 0.1420971     H
H     0.68359383 0.14209524 0.86362139     H
O     0.683769  6.5e-07      0.5     O
O     0.683769 0.316229      0.0     O
O     0.683769  0.31623      0.5     O
O     0.683769      0.5  0.31623     O
O     0.683769 0.99999982  0.31623     O
O      0.68377      0.5      0.0     O
H     0.684767 0.769062 0.809539     H
H     0.684768 0.236629 0.769063     H
H     0.684768 0.236629 0.809539     H
H     0.684768 0.769062 0.236629     H
H     0.684768 0.809539 0.236629     H
H     0.684768 0.809539 0.769063     H
H     0.685528 0.282876 0.899643     H
H     0.685528 0.899644 0.282875     H
H     0.685529 0.631951 0.899643     H
H     0.685529 0.899643 0.631951     H
H      0.68553 0.282875 0.631951     H
H      0.68553 0.631951 0.282875     H
C     0.686419 0.0586597  0.53806     C
C     0.686419 0.538059 0.0586608     C
C      0.68642 0.0586591  0.21686     C
C      0.68642 0.216859 0.0586608     C
C      0.68642  0.21686  0.53806     C
C      0.68642 0.538059  0.21686     C
C     0.686709  0.14359 0.0203904     C
C     0.686709 0.143591 0.649309     C
C     0.686709 0.649309  0.14359     C
C      0.68671 0.0203898  0.14359     C
C      0.68671 0.0203898 0.649309     C
C      0.68671 0.649309 0.0203904     C
C     0.686799  0.21938  0.78566     C
C     0.686799 0.785659 0.808159     C
C     0.686799  0.78566 0.219381     C
C     0.686799 0.808159  0.78566     C
C       0.6868 0.808159 0.219381     C
C     0.686801 0.219379 0.808159     C
C     0.687249  0.14589  0.97961     C
C     0.687249 0.687249  0.97961     C
C     0.687249  0.68725  0.14589     C
C     0.687249 0.979609  0.68725     C
C     0.687249  0.97961  0.14589     C
C      0.68725  0.14589  0.68725     C
C     0.688969  0.19631 0.763031     C
C      0.68897  0.19631  0.85169     C
C      0.68897 0.763029  0.19631     C
C      0.68897 0.763029  0.85169     C
C      0.68897 0.851688 0.763031     C
C      0.68897  0.85169  0.19631     C
C     0.689588  0.82921  0.78551     C
C     0.689589 0.195691 0.829209     C
C     0.689589  0.78551 0.195691     C
C     0.689589  0.78551 0.829209     C
C     0.689589 0.829208 0.195691     C
C      0.68959 0.195689  0.78551     C
H     0.6912346 0.3298198 0.89930389     H
H     0.69123461 0.57964023 0.89930345     H
H     0.69123556 0.89930309 0.32982053     H
H     0.69123695 0.57963572 0.3298207     H
H     0.69123735 0.32981897 0.57963501     H
H     0.69123928 0.89930407 0.5796352     H
H     0.693931 0.175001 0.0758782     H
H     0.693932 0.0758772 0.175002     H
H     0.693932 0.175001 0.555188     H
H     0.693932 0.555187 0.175002     H
H     0.693932 0.555188 0.0758782     H
H     0.693933 0.0758773 0.555188     H
O     0.694349 0.215189  0.84955     O
O     0.694349 0.740909  0.84955     O
O     0.694349 0.849549  0.21519     O
O      0.69435  0.21519 0.740909     O
O      0.69435 0.740909  0.21519     O
O      0.69435 0.849549 0.740909     O
C     0.694699   0.1585 0.694699     C
C     0.694699   0.1585   0.9521     C
C     0.694699 0.694699   0.1585     C
C     0.694699 0.694699   0.9521     C
C     0.694699   0.9521   0.1585     C
C       0.6947 0.952099 0.694699     C
H     0.69535831 0.90661229 0.10848018     H
H     0.69535838 0.78954977 0.10847934     H
H     0.69535997 0.10847391 0.90660997     H
H     0.69536017 0.10847253 0.78955171     H
H     0.6953609 0.90661001 0.78955367     H
H     0.695361 0.78955413 0.9066101     H
O      0.69634  0.31694 0.537499     O
O      0.69634  0.31694  0.94922     O
O      0.69634   0.5375  0.94922     O
O      0.69634 0.949219 0.316939     O
O     0.696341 0.537499 0.316939     O
O     0.696341 0.949219 0.537499     O
C     0.697289  0.29037 0.921189     C
C     0.697289 0.591149 0.290371     C
C     0.697289  0.59115 0.921189     C
C     0.697289 0.921189 0.290371     C
C      0.69729 0.290369 0.591149     C
C      0.69729 0.921189 0.591149     C
H     0.697618 0.0306379 0.630632     H
H     0.697618 0.030639 0.141111     H
H     0.697618  0.14111 0.630632     H
H     0.697618 0.141111 0.0306382     H
H     0.697618  0.63063 0.141111     H
H     0.697618 0.630631 0.0306382     H
C     0.697799 0.275099  0.61632     C
C     0.697799 0.275099  0.91078     C
C     0.697799 0.616319  0.91078     C
C     0.697799  0.61632   0.2751     C
C     0.697799 0.910779  0.61632     C
C     0.697799  0.91078   0.2751     C
C     0.698019    0.661 0.992559     C
C     0.698019  0.99256 0.660999     C
C      0.69802  0.14842 0.660999     C
C      0.69802  0.14842 0.992559     C
C      0.69802 0.660999  0.14842     C
C      0.69802 0.992559  0.14842     C
F      0.70027 0.0963094 0.607109     F
Cr    0.700679 0.231959  0.70068    Cr
Cr    0.700679 0.231959  0.86668    Cr
Cr    0.700679  0.70068 0.231959    Cr
Cr    0.700679  0.86668  0.70068    Cr
Cr     0.70068  0.70068  0.86668    Cr
Cr     0.70068 0.866679 0.231959    Cr
O     0.700699 0.0302794  0.51478     O
O     0.700699 0.0302807  0.25424     O
O     0.700699  0.51478 0.0302795     O
O       0.7007 0.254241 0.0302795     O
O       0.7007  0.51478  0.25424     O
O     0.700701 0.254239  0.51478     O
O     0.703969 0.196109  0.70397     O
O     0.703969  0.19611  0.89595     O
O     0.703969  0.70397  0.19611     O
O     0.703969 0.895949  0.19611     O
O      0.70397 0.703969  0.89595     O
O      0.70397  0.89595  0.70397     O
H     0.70495064 0.12927784 0.79158787     H
H     0.70495155 0.8741804 0.12928443     H
H     0.70495196 0.79158558 0.12928241     H
H     0.70495221 0.12927908 0.87417836     H
H     0.7049531 0.79158841 0.8741785     H
H     0.70495328 0.87417845 0.79158765     H
H     0.705411 0.0445705 0.216393     H
H     0.705411 0.216392 0.0445715     H
H     0.705411 0.216392 0.533626     H
H     0.705411 0.533625 0.216393     H
H     0.705412 0.0445701 0.533626     H
H     0.705412 0.533625 0.0445715     H
F      0.70642 0.706419  0.83144     F
C     0.707339  0.29076 0.547601     C
C     0.707339   0.5476 0.954299     C
C     0.707339 0.954299 0.547601     C
C      0.70734   0.5476  0.29076     C
C      0.70734   0.9543  0.29076     C
C     0.707341  0.29076 0.954299     C
O     0.707679   0.2448  0.66278     O
O      0.70768   0.2448 0.884739     O
O      0.70768 0.662779 0.244799     O
O      0.70768 0.662779 0.884739     O
O      0.70768 0.884739 0.244799     O
O      0.70768 0.884739  0.66278     O
O     0.708429  0.14377  0.74449     O
O     0.708429  0.14377 0.903309     O
O     0.708429  0.74449 0.143769     O
O     0.708429  0.90331 0.143769     O
O      0.70843 0.744489 0.903309     O
O      0.70843 0.903309  0.74449     O
C     0.709239 0.0456997   0.4524     C
C     0.709239 0.0457001 0.292661     C
C     0.709239   0.4524 0.292661     C
C      0.70924 0.292659   0.0457     C
C      0.70924  0.29266   0.4524     C
C      0.70924 0.452399   0.0457     C
C     0.709629 0.0788103  0.40885     C
C     0.709629 0.302709  0.40885     C
C      0.70963 0.0788106  0.30271     C
C      0.70963  0.30271 0.0788095     C
C      0.70963 0.408849 0.0788095     C
C      0.70963 0.408849  0.30271     C
N     0.70967603 0.88990082 0.11413814     N
N     0.70967621 0.78628565 0.1141371     N
N     0.70967665 0.1141324 0.78628719     N
N     0.70967715 0.11413363 0.88989896     N
N     0.70967812 0.78628827 0.88989906     N
N     0.70967815 0.88989901 0.78628783     N
C     0.711639  0.27858  0.57186     C
C     0.711639  0.57186 0.278579     C
C     0.711639  0.57186 0.937919     C
C     0.711639  0.93792  0.57186     C
C      0.71164 0.278579 0.937919     C
C      0.71164  0.93792 0.278579     C
O     0.712559 0.169219  0.94354     O
O     0.712559  0.16922 0.674679     O
O     0.712559 0.674679  0.94354     O
O     0.712559  0.67468 0.169219     O
O     0.712559 0.943539 0.674679     O
O      0.71256 0.943539 0.169219     O
C     0.714639 0.249221  0.62114     C
C     0.714639 0.249221 0.914999     C
C     0.714639 0.621139  0.24922     C
C     0.714639    0.915  0.24922     C
C      0.71464  0.62114 0.914999     C
C      0.71464 0.914999  0.62114     C
H     0.715044 0.154074 0.649391     H
H     0.715044 0.154074 0.981491     H
H     0.715044  0.64939 0.981491     H
H     0.715044 0.649391 0.154074     H
H     0.715044 0.981491 0.154074     H
H     0.715044 0.981491 0.649391     H
Cr    0.715899  6.5e-07      0.5    Cr
Cr    0.715899 0.284099      0.5    Cr
Cr    0.715899 0.499999 0.284101    Cr
Cr    0.715899      0.5      0.0    Cr
Cr      0.7159  4.2e-07 0.284101    Cr
Cr      0.7159   0.2841      0.0    Cr
O     0.716028 0.486451  0.33839     O
O     0.716029 0.338389  0.95913     O
O      0.71603 0.338389 0.486449     O
O      0.71603  0.48645  0.95913     O
O      0.71603 0.959129  0.33839     O
O      0.71603  0.95913 0.486449     O
C     0.716499   0.6461 0.903179     C
C       0.7165  0.23422 0.903179     C
C       0.7165   0.6461  0.23422     C
C       0.7165 0.903179  0.23422     C
C       0.7165 0.903179 0.646099     C
C     0.716501  0.23422 0.646099     C
H     0.717123 0.100357  0.31447     H
H     0.717123 0.314471 0.100356     H
H     0.717124 0.314471 0.368048     H
H     0.717124 0.368048  0.31447     H
H     0.717125 0.100357 0.368048     H
H     0.717125 0.368048 0.100356     H
O     0.718339   0.2749 0.972159     O
O     0.718339   0.5346   0.2749     O
O     0.718339 0.972159   0.2749     O
O      0.71834   0.2749 0.534599     O
O      0.71834   0.5346 0.972159     O
O     0.718341 0.972159 0.534599     O
H     0.72140759 0.92197326 0.46961742     H
H     0.72140845 0.92197151 0.38699727     H
H     0.72140871 0.46961473 0.92197228     H
H     0.72140874 0.38699998 0.46961723     H
H     0.72140883 0.4696243 0.38699618     H
H     0.72140914 0.38700002 0.9219728     H
C     0.721419 0.0620803 0.288359     C
C     0.721419 0.288361 0.0620793     C
C      0.72142 0.0620794 0.428139     C
C      0.72142  0.28836 0.428139     C
C      0.72142  0.42814 0.0620793     C
C      0.72142  0.42814 0.288359     C
C     0.724899 0.0892195 0.383681     C
C     0.724899   0.3022 0.383681     C
C       0.7249 0.0892196 0.302199     C
C       0.7249 0.302201 0.089219     C
C       0.7249  0.38368 0.089219     C
C       0.7249  0.38368 0.302199     C
O       0.7251 0.0278402 0.281661     O
O       0.7251 0.0278404   0.4654     O
O       0.7251  0.28166   0.4654     O
O       0.7251   0.4654 0.281661     O
O     0.725101  0.28166 0.0278394     O
O     0.725101   0.4654 0.0278394     O
C     0.725289  0.25129  0.57787     C
C      0.72529  0.25129  0.94555     C
C      0.72529  0.57787 0.251289     C
C      0.72529  0.57787  0.94555     C
C      0.72529 0.945549  0.57787     C
C      0.72529  0.94555 0.251289     C
H     0.7263443 0.44102712 0.38368243     H
H     0.7263462 0.9489462 0.38368218     H
H     0.72634708 0.94894726 0.44101982     H
H     0.72634793 0.3836836 0.44102001     H
H     0.72634898 0.44101726 0.94894618     H
H     0.72634912 0.38368381 0.94894665     H
C     0.726699  0.23638  0.93394     C
C     0.726699  0.93394  0.23638     C
C       0.7267 0.236381 0.602979     C
C       0.7267  0.60298  0.93394     C
C     0.726701 0.602979  0.23638     C
C     0.726701 0.933939 0.602979     C
O     0.727839   0.2104   0.6507     O
O      0.72784   0.2104  0.91106     O
O      0.72784 0.650699  0.91106     O
O      0.72784   0.6507   0.2104     O
O      0.72784 0.911059   0.6507     O
O     0.727841 0.911059   0.2104     O
N     0.73274178 0.45559698 0.37839081     N
N     0.73274207 0.93327178 0.45559126     N
N     0.73274233 0.93327048 0.37839112     N
N     0.73274307 0.37839289 0.45559126     N
N     0.73274317 0.45558934 0.93327103     N
N     0.73274365 0.37839272 0.93327139     N
C     0.733359  0.13492 0.898359     C
C     0.733359  0.73336 0.134919     C
C     0.733359  0.89836 0.134919     C
C      0.73336 0.134919 0.733359     C
C      0.73336 0.898361 0.733359     C
C     0.733361 0.733359 0.898359     C
H     0.734399 0.242152   0.5635     H
H     0.734399 0.563499 0.242153     H
H     0.734399 0.959947   0.5635     H
H     0.734399 0.959948 0.242153     H
H       0.7344 0.242152 0.959947     H
H       0.7344 0.563499 0.959947     H
C     0.735439 0.774699 0.101301     C
C     0.735439  0.88856 0.101301     C
C      0.73544 0.101299 0.774699     C
C      0.73544   0.1013 0.888559     C
C     0.735441 0.774699 0.888559     C
C     0.735441 0.888559 0.774699     C
H     0.736585 0.608535 0.939089     H
H     0.736585 0.939089  0.21579     H
H     0.736586 0.215789 0.939089     H
H     0.736586  0.21579 0.608534     H
H     0.736586 0.608534  0.21579     H
H     0.736586 0.939089 0.608534     H
Cr    0.738799 0.176281   0.9068    Cr
Cr    0.738799   0.9068 0.176281    Cr
Cr      0.7388  0.17628 0.678119    Cr
Cr      0.7388 0.678119   0.9068    Cr
Cr      0.7388  0.67812 0.176281    Cr
Cr      0.7388   0.9068 0.678119    Cr
C      0.73919 0.322649 0.483929     C
C      0.73919 0.322649 0.954229     C
C      0.73919 0.483929 0.954229     C
C      0.73919  0.48393  0.32265     C
C      0.73919 0.954229  0.32265     C
C      0.73919 0.954229 0.483929     C
O     0.740909 0.215189  0.84955     O
O     0.740909  0.69435  0.84955     O
O     0.740909 0.849549  0.21519     O
O     0.740909 0.849549  0.69435     O
O      0.74091 0.215191  0.69435     O
O      0.74091  0.69435  0.21519     O
H     0.741848 0.0715239 0.875729     H
H     0.741848 0.875729 0.0715241     H
H     0.741849 0.0715238 0.810896     H
H     0.741849 0.810896 0.0715241     H
H     0.741849 0.810897 0.875729     H
H     0.741849 0.875729 0.810896     H
O     0.744489  0.14377 0.903309     O
O     0.744489  0.90331 0.143769     O
O     0.744489  0.90331  0.70843     O
O      0.74449 0.143769  0.70843     O
O      0.74449 0.708429 0.143769     O
O      0.74449 0.708429 0.903309     O
O      0.74576   0.2993 0.485219     O
O      0.74576   0.2993 0.969719     O
O      0.74576 0.485219 0.969719     O
O      0.74576  0.48522 0.299299     O
O      0.74576  0.96972 0.485219     O
O     0.745761 0.969719 0.299299     O
H     0.74598456 0.33392577 0.23676206     H
H     0.74598572 0.18332623 0.33392736     H
H     0.74598632 0.18332217 0.23676005     H
C     0.747018  0.74702  0.89588     C
C     0.747019  0.11008  0.89588     C
C     0.747019  0.89588 0.110079     C
C     0.747019  0.89588  0.74702     C
C      0.74702 0.110079  0.74702     C
C     0.747021  0.74702 0.110079     C
C     0.748709 0.054449  0.27471     C
C     0.748709  0.05445  0.42213     C
C      0.74871 0.274709  0.42213     C
C      0.74871  0.27471 0.054449     C
C      0.74871 0.422129 0.054449     C
C      0.74871 0.422129  0.27471     C
F      0.74954      0.5 0.250459     F
H     0.74997197 0.80341446 0.70027438     H
H     0.74997292 0.70027861 0.80340979     H
H     0.74997294 0.24633725 0.70027422     H
H     0.74997378 0.70027468 0.24633923     H
H     0.7499738 0.24633512 0.80340971     H
H     0.7499746 0.80341033 0.24634089     H
C     0.750759 0.0791199 0.790279     C
C     0.750759 0.0791209 0.879839     C
C     0.750759 0.790279 0.0791193     C
C     0.750759  0.87984 0.0791193     C
C      0.75076 0.790279 0.879839     C
C      0.75076 0.879839 0.790279     C
C      0.75078 0.0849994 0.378861     C
C      0.75078    0.085  0.28536     C
C      0.75078  0.28536 0.0849995     C
C      0.75078  0.28536 0.378861     C
C      0.75078 0.378859  0.28536     C
C     0.750781 0.378859 0.0849995     C
H     0.75365955 0.1965881 0.25002573     H
H     0.75366057 0.29972059 0.25002441     H
H     0.75366156 0.19659089 0.2997222     H
O     0.755199  0.29232  0.11526     O
O       0.7552 0.115259  0.29232     O
O       0.7552 0.115259 0.337221     O
O       0.7552  0.29232 0.337221     O
O       0.7552  0.33722  0.11526     O
O       0.7552  0.33722  0.29232     O
C     0.756729 0.456329  0.92735     C
C     0.756729  0.92735 0.456329     C
C      0.75673 0.359589  0.92735     C
C      0.75673  0.35959 0.456329     C
C      0.75673 0.456331 0.359589     C
C      0.75673 0.927349 0.359589     C
H     0.757848 0.0400516   0.4365     H
H     0.757848 0.0400517 0.265599     H
H     0.757848 0.265599 0.0400518     H
H     0.757848 0.265599   0.4365     H
H     0.757848   0.4365 0.0400518     H
H     0.757848   0.4365 0.265599     H
N     0.75813272 0.31584523 0.23555347     N
N     0.75813298 0.19046375 0.23555322     N
N     0.75813377 0.19046652 0.31584639     N
C     0.759829  0.33209  0.93799     C
C     0.759829  0.47009  0.93799     C
C     0.759829 0.937989 0.332091     C
C     0.759829  0.93799 0.470089     C
C      0.75983 0.470089 0.332091     C
C     0.759831  0.33209 0.470089     C
F      0.76019 0.861849  0.86185     F
C     0.763029  0.19631 0.688969     C
C     0.763029  0.19631  0.85169     C
C     0.763029 0.688969  0.19631     C
C     0.763029 0.688969  0.85169     C
C     0.763029  0.85169  0.19631     C
C     0.763029  0.85169 0.688969     C
H     0.76323598 0.25401207 0.81667587     H
H     0.76323599 0.66607335 0.81667522     H
H     0.76323773 0.81668046 0.66606955     H
H     0.76323886 0.25401024 0.6660694     H
H     0.76323899 0.66606967 0.25401382     H
H     0.76323972 0.81667756 0.25401329     H
H      0.76337 0.230937 0.315232     H
H      0.76337 0.230939 0.190459     H
H      0.76337 0.315232 0.190459     H
C     0.763619 0.0660599 0.397019     C
C     0.763619 0.0660603 0.273299     C
C     0.763619   0.2733 0.0660591     C
C      0.76362   0.2733 0.397019     C
C      0.76362 0.397019 0.0660591     C
C      0.76362 0.397019 0.273299     C
N     0.76444457 0.68415389 0.80953426     N
N     0.76444486 0.80953815 0.68415096     N
N     0.76444516 0.24186394 0.80953447     N
N     0.7644459 0.24186405 0.68415085     N
N     0.76444625 0.68415084 0.24186662     N
N     0.76444681 0.80953531 0.24186703     N
H     0.76457217 0.86094118 0.96371556     H
H     0.76457254 0.96371162 0.86094549     H
H     0.76457411 0.91076632 0.96371508     H
C     0.765779 0.0968196   0.2835     C
C     0.765779 0.0968201   0.3539     C
C     0.765779   0.2835 0.0968201     C
C      0.76578   0.2835   0.3539     C
C      0.76578 0.353899   0.2835     C
C      0.76578   0.3539 0.0968201     C
F     0.766289  0.15625  0.92201     F
F     0.766289 0.922009  0.65545     F
F     0.766289  0.92201 0.156251     F
O     0.767739 0.183939  0.87362     O
O     0.767739 0.183941   0.6747     O
O     0.767739 0.873619  0.18394     O
O     0.767739  0.87362   0.6747     O
O      0.76774 0.674699  0.18394     O
O      0.76774 0.674699  0.87362     O
Cr     0.76804 0.133321  0.29932    Cr
Cr     0.76804 0.299319 0.133321    Cr
Cr     0.76804 0.299319  0.29932    Cr
C     0.774699  0.73544 0.888559     C
C     0.774699  0.88856 0.101301     C
C     0.774699 0.888561 0.735439     C
C       0.7747   0.1013 0.888559     C
C       0.7747 0.735439 0.101301     C
C     0.774701 0.101299 0.735439     C
H     0.776896 0.386886 0.438619     H
H     0.776897 0.386886 0.897597     H
H     0.776897 0.438619 0.386885     H
H     0.776897  0.43862 0.897597     H
H     0.776897 0.897597 0.386885     H
H     0.776897 0.897598 0.438619     H
C     0.777849 0.0675101 0.876789     C
C     0.777849 0.0675104 0.777849     C
C     0.777849  0.77785 0.0675092     C
C     0.777849  0.87679 0.0675092     C
C      0.77785 0.876791 0.777849     C
C     0.777851 0.777849 0.876789     C
C     0.778988  0.44335  0.91045     C
C     0.778989 0.367209  0.91045     C
C      0.77899  0.36721 0.443349     C
C      0.77899 0.443349  0.36721     C
C      0.77899 0.910449  0.36721     C
C      0.77899 0.910449 0.443349     C
C     0.780619  0.19184  0.21434     C
C     0.780619 0.313199  0.21434     C
C      0.78062 0.191841 0.313199     C
C      0.78062  0.21434 0.191839     C
C      0.78062  0.21434 0.313199     C
C      0.78062 0.313201 0.191839     C
N     0.78283798 0.86051935 0.95067556     N
N     0.7828389 0.95067222 0.86052194     N
N     0.78284005 0.90596315 0.95067498     N
C     0.783139  0.31358  0.94134     C
C      0.78314 0.313579  0.46194     C
C      0.78314 0.461939 0.313579     C
C      0.78314  0.46194  0.94134     C
C      0.78314 0.941339 0.313579     C
C      0.78314 0.941339  0.46194     C
H     0.783607 0.294589 0.466374     H
H     0.783607 0.294589 0.955429     H
H     0.783607 0.466374 0.955429     H
H     0.783607 0.955429 0.294588     H
H     0.783608 0.466373 0.294588     H
H     0.783608 0.955428 0.466374     H
H     0.783866 0.111123 0.715477     H
H     0.783866 0.889533 0.715477     H
H     0.783867 0.715477 0.111122     H
H     0.783867 0.715477 0.889532     H
H     0.783868 0.111123 0.889532     H
H     0.783868 0.889533 0.111122     H
H     0.784209 0.263415 0.0609099     H
H     0.784209 0.391465 0.263414     H
H      0.78421 0.0609101 0.263414     H
H      0.78421 0.0609104 0.391465     H
H      0.78421 0.263413 0.391465     H
H     0.784211 0.391465 0.0609099     H
O     0.784468  0.86079 0.0378105     O
O     0.784469 0.0378089  0.86079     O
O     0.784469  0.81693  0.86079     O
O     0.784469 0.860789  0.81693     O
O      0.78447 0.0378096  0.81693     O
O      0.78447  0.81693 0.0378105     O
O     0.784809  0.25909 0.305651     O
O     0.784809  0.30565 0.150451     O
O     0.784809  0.30565 0.259089     O
O      0.78481 0.150449 0.305651     O
O      0.78481  0.15045 0.259089     O
O      0.78481 0.259089 0.150451     O
C     0.785509 0.195691 0.829209     C
C     0.785509 0.829208 0.195691     C
C     0.785509 0.829208 0.689591     C
C      0.78551  0.19569 0.689591     C
C      0.78551 0.689589 0.195691     C
C      0.78551 0.689589 0.829209     C
C     0.785659   0.6868 0.808159     C
C     0.785659  0.80816   0.6868     C
C      0.78566 0.219379   0.6868     C
C      0.78566 0.219379 0.808159     C
C      0.78566 0.686799 0.219381     C
C      0.78566 0.808159 0.219381     C
H     0.786892 0.855305 0.908357     H
H     0.786892 0.949443 0.908357     H
H     0.786893 0.908356 0.855306     H
H     0.7890626 0.87559736 0.94414401     H
H     0.78906474 0.94413955 0.87559939     H
H     0.7890656 0.89119218 0.94414291     H
O     0.789599 0.0889397   0.3493     O
O     0.789599 0.0889408 0.272159     O
O     0.789599  0.27216 0.0889403     O
O     0.789599 0.349299 0.0889403     O
O       0.7896  0.27216   0.3493     O
O       0.7896   0.3493 0.272159     O
C     0.790278 0.0791209 0.879839     C
C     0.790279 0.750759 0.879839     C
C     0.790279 0.879839  0.75076     C
C     0.790279  0.87984 0.0791193     C
C      0.79028 0.0791199  0.75076     C
C      0.79028  0.75076 0.0791193     C
C     0.793738 0.0479205   0.8646     C
C     0.793738  0.79374   0.8646     C
C     0.793739 0.864599 0.0479199     C
C     0.793739   0.8646 0.793739     C
C      0.79374 0.0479195 0.793739     C
C      0.79374 0.793739 0.0479199     C
Cr    0.794109  0.01043  0.84773    Cr
Cr     0.79411 0.847729 0.0104291    Cr
Cr     0.79411 0.847729  0.84773    Cr
C     0.799129 0.839549  0.94187     C
C     0.799129 0.941869  0.83955     C
C      0.79913  0.83955 0.919449     C
C      0.79913 0.919449  0.83955     C
C      0.79913 0.919449  0.94187     C
C     0.799131 0.941869 0.919449     C
O      0.80113 0.838149 0.981489     O
O      0.80113  0.83815 0.879229     O
O      0.80113 0.879229 0.981489     O
O      0.80113  0.87923 0.838149     O
O      0.80113  0.98149 0.838149     O
O      0.80113  0.98149 0.879229     O
C     0.803689  0.14831  0.23697     C
C     0.803689 0.236969 0.148311     C
C      0.80369 0.148309  0.31103     C
C      0.80369  0.23697  0.31103     C
C      0.80369 0.311029 0.148311     C
C      0.80369 0.311029  0.23697     C
O     0.803889  0.10405 0.296031     O
O     0.803889 0.296029 0.104051     O
O     0.803889  0.29603 0.296031     O
C     0.804079  0.43692   0.3477     C
C      0.80408 0.347699   0.9113     C
C      0.80408   0.3477 0.436919     C
C      0.80408 0.436919   0.9113     C
C      0.80408   0.9113   0.3477     C
C     0.804081 0.911299 0.436919     C
C     0.804308  0.21449  0.31041     C
C     0.804309  0.17079 0.214491     C
C     0.804309  0.17079  0.31041     C
C     0.804309 0.310409 0.214491     C
C     0.804309  0.31041  0.17079     C
C      0.80431 0.214489  0.17079     C
C     0.806209 0.320789 0.447571     C
C     0.806209  0.32079  0.92543     C
C     0.806209  0.44757 0.320791     C
C     0.806209  0.44757  0.92543     C
C     0.806209 0.925429 0.447571     C
C      0.80621  0.92543 0.320791     C
C      0.80816 0.219379   0.6868     C
C      0.80816  0.21938  0.78566     C
C      0.80816 0.686799 0.219381     C
C      0.80816 0.686799  0.78566     C
C      0.80816  0.78566 0.219381     C
C      0.80816  0.78566   0.6868     C
H     0.809538 0.684769 0.769063     H
H     0.809538 0.769062 0.684769     H
H     0.809539 0.236629 0.684769     H
H     0.809539 0.236629 0.769063     H
H     0.809539 0.684769 0.236629     H
H     0.809539 0.769062 0.236629     H
C      0.81015 0.177209  0.83267     C
C      0.81015  0.17721  0.67997     C
C      0.81015  0.67997  0.83267     C
C      0.81015 0.832669  0.17721     C
C      0.81015 0.832669  0.67997     C
C     0.810151 0.679969  0.17721     C
H     0.810896 0.0715244 0.741849     H
H     0.810896 0.875729 0.0715241     H
H     0.810897 0.0715239 0.875729     H
H     0.810897 0.741848 0.875729     H
H     0.810897 0.741849 0.0715241     H
H     0.810897 0.875729 0.741849     H
H     0.810905 0.673187 0.164181     H
H     0.810906 0.164181 0.673188     H
H     0.810906 0.164181 0.851723     H
H     0.810906 0.851723 0.164181     H
H     0.810906 0.851725 0.673188     H
H     0.810907 0.673187 0.851723     H
O     0.816058  0.23226  0.12638     O
O     0.816059  0.12638 0.232259     O
O      0.81606  0.12638   0.3253     O
O      0.81606 0.232259   0.3253     O
O      0.81606   0.3253  0.12638     O
O      0.81606   0.3253 0.232259     O
C     0.816139 0.816139  0.97703     C
C     0.816139  0.81614  0.89069     C
C      0.81614 0.890689  0.97703     C
C      0.81614  0.89069 0.816139     C
C      0.81614  0.97703 0.816139     C
C      0.81614  0.97703  0.89069     C
C     0.816799  0.91166 0.816799     C
C       0.8168   0.8168 0.911659     C
C       0.8168   0.8168 0.954739     C
C       0.8168 0.954739 0.816799     C
C     0.816801 0.911659 0.954739     C
C     0.816801 0.954739 0.911659     C
O     0.816929 0.0378089  0.86079     O
O     0.816929  0.78447  0.86079     O
O     0.816929 0.860789 0.784469     O
O     0.816929  0.86079 0.0378105     O
O      0.81693 0.0378104 0.784469     O
O      0.81693  0.78447 0.0378105     O
C     0.822789  0.16733  0.32003     C
C     0.822789 0.189851  0.32003     C
C     0.822789 0.320029 0.167331     C
C     0.822789 0.320031 0.189849     C
C      0.82279  0.16733 0.189849     C
C      0.82279 0.189849 0.167331     C
Cr    0.823718  0.32188 0.0932008    Cr
Cr    0.823719 0.0931993  0.32188    Cr
Cr    0.823719 0.321881   0.2612    Cr
Cr     0.82372 0.0932003   0.2612    Cr
Cr     0.82372 0.261199 0.0932008    Cr
Cr     0.82372 0.261199  0.32188    Cr
H     0.82499675 0.28183468 0.0304838     H
H     0.82499738 0.03048768 0.2818349     H
H     0.8249974 0.2818339 0.36268071     H
H     0.824998 0.444811 0.924123     H
H     0.824998 0.924122 0.444811     H
H     0.824998 0.924123 0.306068     H
H     0.824999 0.306066 0.924123     H
H     0.824999 0.306068 0.444811     H
H     0.824999 0.444811 0.306068     H
O     0.827619  0.37616 0.421339     O
O     0.827619 0.376161 0.874879     O
O     0.827619  0.42134 0.376159     O
O      0.82762  0.42134 0.874879     O
O      0.82762 0.874879 0.376159     O
O      0.82762  0.87488 0.421339     O
C     0.827919   0.4259   0.3535     C
C     0.827919  0.89268   0.3535     C
C      0.82792   0.3535 0.892679     C
C      0.82792 0.353501   0.4259     C
C      0.82792 0.425901 0.892679     C
C      0.82792 0.892679   0.4259     C
O     0.829155 0.012531 0.829156     O
O     0.829155 0.829157 0.0125301     O
O     0.829157 0.829156 0.829156     O
C     0.829209  0.78551 0.195691     C
C      0.82921 0.195689  0.78551     C
C      0.82921  0.19569 0.689591     C
C      0.82921 0.689589 0.195691     C
C      0.82921 0.689589  0.78551     C
C      0.82921 0.785508 0.689591     C
O     0.830779 0.0564597  0.32532     O
O     0.830779 0.056461 0.287439     O
O     0.830779 0.287441 0.0564604     O
O     0.830779 0.287441  0.32532     O
O     0.830779 0.325319 0.0564604     O
O      0.83078 0.325321 0.287439     O
F      0.83144  0.25572  0.70642     F
F      0.83144  0.70642 0.255719     F
F     0.832369 0.417629  0.41763     F
C     0.832668  0.81015  0.67997     C
C     0.832669  0.17721  0.67997     C
C     0.832669  0.67997 0.810149     C
C      0.83267  0.17721 0.810149     C
C      0.83267 0.679969  0.17721     C
C     0.832671 0.810149  0.17721     C
H     0.835817 0.148276 0.326813     H
H     0.835817 0.326812 0.148275     H
H     0.835818 0.148275 0.189093     H
H     0.835818 0.189093 0.148275     H
H     0.835819 0.189093 0.326813     H
H     0.835819 0.326811 0.189093     H
O     0.838149 0.801129 0.879229     O
O     0.838149  0.80113 0.981489     O
O     0.838149 0.879229 0.981489     O
O     0.838149 0.981489 0.801129     O
O     0.838149  0.98149 0.879229     O
O      0.83815 0.879229 0.801129     O
C     0.839549 0.799129  0.94187     C
C     0.839549  0.94187  0.79913     C
C      0.83955  0.79913 0.919449     C
C      0.83955 0.919449  0.94187     C
C      0.83955  0.91945  0.79913     C
C     0.839551 0.941869 0.919449     C
C       0.8415   0.0479   0.3053     C
C       0.8415 0.305299 0.0479004     C
C     0.841501 0.305299   0.3053     C
F     0.843748  0.23371 0.344551     F
F     0.843749 0.0779908  0.23371     F
F     0.843749  0.34455 0.0779909     F
N     0.84425789 0.28002066 0.02223687     N
N     0.84425845 0.02223939 0.28002134     N
N     0.84425845 0.28002034 0.35348099     N
H     0.845925 0.350609 0.284956     H
H     0.845927 0.0185086 0.350608     H
H     0.845927 0.350609 0.0185076     H
Cr    0.847729  0.01043 0.794109    Cr
Cr    0.847729  0.79411 0.0104291    Cr
Cr    0.847729  0.79411  0.84773    Cr
Cr    0.847729 0.847729 0.794109    Cr
Cr     0.84773  0.01043  0.84773    Cr
Cr    0.847731 0.847729 0.0104291    Cr
O     0.849549  0.21519 0.740909     O
O     0.849549 0.215191  0.69435     O
O     0.849549  0.69435  0.21519     O
O     0.849549 0.740909  0.21519     O
O      0.84955  0.69435 0.740909     O
O      0.84955 0.740909  0.69435     O
O     0.849679  0.33646   0.4177     O
O     0.849679  0.33646  0.89616     O
O     0.849679 0.417699  0.33646     O
O     0.849679 0.896159  0.33646     O
O     0.849679  0.89616   0.4177     O
O      0.84968 0.417699  0.89616     O
C     0.851579 0.00743965 0.301981     C
C     0.851579 0.00744077    0.339     C
C     0.851579  0.30198 0.0074393     C
C     0.851579  0.30198    0.339     C
C     0.851579 0.338999 0.301981     C
C     0.851579 0.339001 0.0074393     C
C     0.851689  0.19631 0.688969     C
C     0.851689  0.19631 0.763031     C
C     0.851689 0.688969  0.19631     C
C     0.851689  0.68897 0.763031     C
C      0.85169 0.763029  0.19631     C
C      0.85169 0.763029 0.688969     C
H     0.851723 0.164182 0.810906     H
H     0.851723 0.673187 0.164181     H
H     0.851723 0.810906 0.164181     H
H     0.851724 0.164181 0.673188     H
H     0.851724 0.673188 0.810906     H
H     0.851724 0.810906 0.673188     H
C      0.85411 0.0203898 0.312749     C
C      0.85411 0.312749 0.0203904     C
C      0.85411  0.31275 0.312749     C
Cr    0.854209  0.39579  0.39579    Cr
Cr     0.85421  0.39579  0.85421    Cr
Cr    0.854211 0.854209  0.39579    Cr
H     0.855306 0.786892 0.949444     H
H     0.855306 0.908357 0.786892     H
H     0.855306 0.949444 0.786892     H
H     0.855307  0.78689 0.908357     H
H     0.855307 0.908356 0.949444     H
H     0.855307 0.949443 0.908357     H
H     0.85611256 0.73909747 0.82894059     H
H     0.85611485 0.07584614 0.73909558     H
H     0.85611931 0.73909428 0.07584195     H
O     0.856229 0.255511 0.291569     O
O      0.85623 0.0966896 0.291569     O
O      0.85623 0.0966904 0.255509     O
O      0.85623  0.25551 0.0966895     O
O      0.85623 0.291569 0.255509     O
O      0.85623  0.29157 0.0966895     O
C     0.856408  0.97961 0.313291     C
C     0.856409  0.31329  0.97961     C
C     0.856409 0.313291  0.35069     C
C     0.856409  0.35069  0.97961     C
C     0.856409 0.979609  0.35069     C
C      0.85641 0.350689 0.313291     C
C     0.857919  0.33816  0.33816     C
C      0.85792 0.338161 0.965759     C
C      0.85792  0.96576  0.33816     C
H     0.85810779 0.26197581 0.02492727     H
H     0.85810866 0.26197572 0.3549846     H
H     0.85810868 0.02493005 0.26197673     H
H     0.858888  0.30238 0.369369     H
H     0.858888 0.302382 0.969361     H
H     0.858888 0.369369  0.30238     H
H     0.858888 0.969361  0.30238     H
H     0.858889 0.369369 0.969361     H
H     0.858889 0.969361 0.369369     H
O     0.860789 0.0378104 0.784469     O
O     0.860789  0.78447 0.0378105     O
O     0.860789  0.81693 0.0378105     O
O      0.86079 0.0378096  0.81693     O
O      0.86079 0.784469  0.81693     O
O      0.86079 0.816929 0.784469     O
F     0.861849 0.0161102 0.760189     F
F     0.861849  0.76019 0.0161104     F
C     0.864599 0.0479195 0.793739     C
C     0.864599 0.793739 0.0479199     C
C     0.864601 0.793739 0.793739     C
C     0.865079  0.10164  0.26664     C
C     0.865079 0.266639  0.26664     C
C     0.865079  0.26664  0.10164     C
Cr    0.866679 0.231959  0.70068    Cr
Cr    0.866679 0.700679  0.70068    Cr
Cr    0.866679  0.70068 0.231959    Cr
C     0.870129 0.346391 0.937089     C
C     0.870129 0.937089 0.346391     C
C      0.87013  0.34639 0.346391     C
H     0.87071717 0.12582077 0.208414     H
H     0.87072006 0.20841078 0.12581875     H
H     0.87072083 0.20841049 0.29504919     H
O     0.872729  0.33483 0.368391     O
O     0.872729  0.36839  0.92405     O
O     0.872729  0.92405 0.368391     O
O      0.87273 0.334829  0.92405     O
O      0.87273  0.92405 0.334829     O
O     0.872731 0.368389 0.334829     O
O     0.873619 0.183941   0.6747     O
O     0.873619 0.674699 0.767739     O
O     0.873619  0.76774   0.6747     O
O      0.87362  0.18394 0.767739     O
O      0.87362 0.674699  0.18394     O
O      0.87362 0.767739  0.18394     O
N     0.8744451 0.73957096 0.81691097     N
N     0.87444678 0.06906989 0.7395705     N
N     0.87445071 0.73956971 0.06906753     N
O     0.874878  0.37616  0.82762     O
O     0.874879  0.37616 0.421339     O
O     0.874879  0.42134 0.376159     O
O     0.874879  0.82762 0.376159     O
O      0.87488  0.42134  0.82762     O
O      0.87488  0.82762 0.421339     O
H     0.87559724 0.77644514 0.45013208     H
H     0.87559959 0.77644053 0.39782724     H
H     0.875601 0.39782736 0.45013163     H
H     0.87560133 0.45013043 0.77643822     H
H     0.8756018 0.45012757 0.39782928     H
H     0.87560236 0.39782976 0.77643808     H
H     0.875729 0.0715238 0.810896     H
H     0.875729 0.810896 0.0715241     H
H     0.875729 0.810896 0.741849     H
O     0.876328  0.37367 0.373671     O
O     0.876329  0.87633 0.373671     O
O      0.87633 0.373671 0.876329     O
C     0.876789 0.0675104 0.777849     C
C     0.876789  0.77785 0.0675092     C
H     0.87679089 0.29443363 0.6882745     H
C     0.876791 0.777849 0.777849     C
H     0.8767915 0.29443395 0.64049929     H
H     0.87679237 0.64049954 0.29443539     H
H     0.87679282 0.68827266 0.64049919     H
H     0.87679288 0.64049965 0.68827262     H
H     0.87679323 0.68826942 0.29443393     H
O     0.879229  0.80113 0.981489     O
O      0.87923 0.838149 0.981489     O
O      0.87923 0.981489 0.801129     O
O      0.87923  0.98149 0.838149     O
O     0.879231 0.801129 0.838149     O
O     0.879231 0.838149 0.801129     O
C     0.879839 0.0791199  0.75076     C
C     0.879839 0.0791199 0.790279     C
C     0.879839  0.75076 0.790279     C
C     0.879839  0.79028  0.75076     C
C      0.87984  0.75076 0.0791193     C
C      0.87984 0.790279 0.0791193     C
O     0.884738   0.2448  0.66278     O
O     0.884739 0.244801 0.707679     O
O     0.884739 0.662779 0.244799     O
O      0.88474 0.662779 0.707679     O
O      0.88474 0.707679 0.244799     O
O      0.88474 0.707679  0.66278     O
N     0.88586311 0.11010009 0.21371303     N
N     0.88586535 0.21371131 0.11009827     N
N     0.88586622 0.21371115 0.29032333     N
Cr    0.886179 0.336399 0.391241    Cr
Cr    0.886179   0.3364  0.88618    Cr
Cr    0.886179 0.391239   0.3364    Cr
Cr     0.88618 0.391239  0.88618    Cr
Cr     0.88618 0.886178 0.391241    Cr
Cr     0.88618 0.886179   0.3364    Cr
C     0.888559 0.735439 0.101301     C
C      0.88856 0.101299 0.735439     C
C      0.88856 0.735439 0.774699     C
C      0.88856 0.774699 0.101301     C
C      0.88856   0.7747 0.735439     C
C     0.888561 0.101299 0.774699     C
H     0.88879085 0.73177429 0.82456584     H
H     0.88879315 0.05486536 0.73177491     H
H     0.88879872 0.73177406 0.05486356     H
H     0.888877 0.110468 0.284522     H
H     0.888877 0.284523 0.110467     H
H     0.888877 0.284523 0.216132     H
H     0.889531 0.111123 0.715477     H
H     0.889531 0.111123 0.783867     H
H     0.889531 0.783868 0.715477     H
H     0.889532 0.715476 0.783867     H
H     0.889532 0.715477 0.111122     H
H     0.889532 0.783868 0.111122     H
C     0.889919 0.252981 0.104119     C
C      0.88992 0.104119 0.252979     C
C      0.88992 0.252979 0.252979     C
C     0.890689 0.816139  0.97703     C
C      0.89069  0.97703 0.816139     C
C     0.890691  0.81614 0.816139     C
H     0.89119004 0.94413932 0.87559816     H
H     0.89119091 0.78907001 0.87559877     H
H     0.89119158 0.78906569 0.94414256     H
H     0.89152166 0.09338906 0.21044777     H
H     0.8915249 0.21044629 0.09338682     H
H     0.89152577 0.21044688 0.30463992     H
C     0.892679 0.353499  0.82792     C
C     0.892679 0.353501   0.4259     C
C     0.892679   0.4259   0.3535     C
C     0.892679   0.4259  0.82792     C
C     0.892679 0.827919   0.4259     C
C     0.892679  0.82792   0.3535     C
N     0.89384117 0.77634621 0.43722117     N
N     0.89384355 0.77634248 0.39259155     N
N     0.89384475 0.39259174 0.43722108     N
N     0.89384526 0.43722034 0.77634051     N
N     0.89384608 0.43721842 0.39259207     N
N     0.89384653 0.39259231 0.77634057     N
C     0.895879  0.74702  0.74702     C
C      0.89588 0.110079  0.74702     C
C      0.89588  0.74702 0.110079     C
O     0.895949 0.196109  0.70397     O
O     0.895949  0.70397  0.19611     O
O      0.89595 0.703969  0.70397     O
O     0.896159  0.33646   0.4177     O
O     0.896159 0.417699  0.33646     O
O     0.896159  0.84968  0.33646     O
O      0.89616  0.33646 0.849679     O
O      0.89616   0.4177 0.849679     O
O      0.89616  0.84968   0.4177     O
N     0.89646193 0.28547968 0.68182343     N
N     0.89646241 0.28547904 0.63623368     N
N     0.89646331 0.6362334 0.28548037     N
N     0.89646379 0.68182232 0.63623314     N
N     0.89646389 0.63623339 0.68182232     N
N     0.89646435 0.68182013 0.28547961     N
C      0.89836 0.134919 0.733359     C
C      0.89836  0.73336 0.134919     C
C      0.89836  0.73336 0.733359     C
C     0.898699  0.11144   0.2253     C
C     0.898699  0.11144  0.26456     C
C     0.898699   0.2253 0.111439     C
C       0.8987 0.225299  0.26456     C
C       0.8987  0.26456   0.2253     C
C       0.8987 0.264561 0.111439     C
H     0.89980973 0.77429243 0.41978099     H
H     0.8998139 0.77428757 0.40611615     H
H     0.89981505 0.40611653 0.4197812     H
H     0.89981611 0.41978036 0.77428523     H
H     0.8998179 0.41977798 0.40611552     H
H     0.89981857 0.40611571 0.77428551     H
C     0.903179   0.6461  0.23422     C
C     0.903179   0.6461   0.7165     C
C      0.90318  0.23422 0.646099     C
C      0.90318  0.23422   0.7165     C
C      0.90318 0.716499  0.23422     C
C      0.90318 0.716499 0.646099     C
O     0.903308  0.14377  0.74449     O
O     0.903309 0.143769  0.70843     O
O     0.903309 0.708429 0.143769     O
O     0.903309  0.70843  0.74449     O
O     0.903309  0.74449 0.143769     O
O     0.903309  0.74449  0.70843     O
F     0.903689 0.392891 0.903689     F
F     0.903689  0.90369  0.39289     F
H     0.90555077 0.28419767 0.66356359     H
H     0.90555148 0.28419635 0.64668687     H
H     0.90555309 0.64668585 0.28419779     H
H     0.90555321 0.66356239 0.64668551     H
H     0.90555342 0.64668572 0.66356243     H
H     0.90555508 0.66356037 0.28419718     H
N     0.90596107 0.95067229 0.86052211     N
N     0.9059617 0.78284218 0.86052256     N
N     0.90596267 0.78283959 0.95067469     N
Cr    0.906799 0.176281 0.738799    Cr
Cr    0.906799  0.67812 0.176281    Cr
Cr    0.906799  0.67812 0.738799    Cr
Cr    0.906799 0.738798 0.176281    Cr
Cr    0.906799   0.7388 0.678119    Cr
Cr      0.9068  0.17628 0.678119    Cr
H     0.908356 0.949444 0.786892     H
H     0.908357 0.855305 0.786892     H
H     0.908357 0.855306 0.949444     H
C     0.910449  0.77899  0.36721     C
C     0.910449 0.778991 0.443349     C
C      0.91045  0.36721 0.443349     C
C      0.91045  0.36721 0.778989     C
C      0.91045 0.443349  0.36721     C
C      0.91045 0.443349 0.778989     C
H     0.91076276 0.96371204 0.86094719     H
H     0.91076363 0.76457554 0.8609478     H
H     0.91076561 0.76457349 0.96371463     H
C     0.910779 0.275099  0.61632     C
C     0.910779   0.2751   0.6978     C
C     0.910779  0.61632   0.2751     C
C     0.910779 0.697799   0.2751     C
C      0.91078  0.61632   0.6978     C
C      0.91078   0.6978  0.61632     C
O     0.911059   0.2104   0.6507     O
O     0.911059   0.2104  0.72784     O
O     0.911059 0.650699  0.72784     O
O     0.911059 0.727839   0.6507     O
O      0.91106   0.6507   0.2104     O
O      0.91106 0.727839   0.2104     O
C     0.911299 0.347699  0.80408     C
C     0.911299  0.43692   0.3477     C
C     0.911299  0.80408   0.3477     C
C       0.9113   0.3477 0.436919     C
C       0.9113 0.436919  0.80408     C
C       0.9113 0.804079 0.436919     C
C      0.91166 0.816799 0.816799     C
C      0.91166   0.8168 0.954739     C
C     0.911661 0.954739 0.816799     C
C     0.914998 0.249221  0.62114     C
C     0.914999 0.621139  0.24922     C
C        0.915 0.249221 0.714639     C
C        0.915  0.62114 0.714639     C
C        0.915 0.714639  0.62114     C
C        0.915  0.71464  0.24922     C
H     0.916407 0.310694 0.586789     H
H     0.916407 0.586788  0.68611     H
H     0.916407 0.586789 0.310695     H
H     0.916407 0.686108 0.586789     H
H     0.916408 0.310694  0.68611     H
H     0.916408 0.686109 0.310695     H
C     0.919449 0.799129  0.94187     C
C     0.919449  0.79913  0.83955     C
C     0.919449 0.839549  0.79913     C
C     0.919449 0.839549  0.94187     C
C     0.919449 0.941869  0.83955     C
C     0.919449  0.94187  0.79913     C
C      0.92088  0.12016 0.209719     C
C      0.92088  0.12016 0.249239     C
C      0.92088  0.20972 0.120159     C
C      0.92088  0.24924 0.120159     C
C      0.92088 0.249241 0.209719     C
C     0.920881 0.209719 0.249239     C
C     0.921189  0.69729 0.290371     C
C      0.92119 0.290371 0.697289     C
C      0.92119 0.591149 0.290371     C
C      0.92119  0.59115 0.697289     C
C     0.921191 0.290369 0.591149     C
C     0.921191  0.69729 0.591149     C
F     0.922011 0.655449 0.766289     F
O     0.924049 0.334829  0.87273     O
O     0.924049  0.33483 0.368391     O
O     0.924049  0.87273 0.334829     O
O     0.924049  0.87273 0.368391     O
O      0.92405 0.368389 0.334829     O
O      0.92405  0.36839  0.87273     O
H     0.924121 0.306067 0.824999     H
H     0.924121 0.824997 0.306068     H
H     0.924122 0.306068 0.444811     H
H     0.924122 0.444811 0.306068     H
H     0.924122 0.444811 0.824999     H
H     0.924122 0.824998 0.444811     H
C     0.925429 0.320789 0.447571     C
C     0.925429  0.44757 0.320791     C
C     0.925429  0.44757  0.80621     C
C      0.92543  0.32079  0.80621     C
C      0.92543 0.806208 0.447571     C
C      0.92543 0.806209 0.320791     C
C     0.927349 0.359589 0.756729     C
C     0.927349  0.35959 0.456329     C
C     0.927349  0.45633 0.756729     C
C     0.927349 0.456331 0.359589     C
C     0.927349  0.75673 0.359589     C
C      0.92735  0.75673 0.456329     C
H     0.928476  0.12427 0.189103     H
H     0.928476 0.124272  0.25815     H
H     0.928476 0.189103  0.25815     H
H     0.928476 0.189104  0.12427     H
H     0.928476 0.258151  0.12427     H
H     0.928476 0.258151 0.189103     H
H     0.932369 0.373629 0.737828     H
H     0.932369  0.37363 0.456171     H
H     0.932369 0.456171 0.737828     H
H     0.932369 0.456172  0.37363     H
H     0.932369 0.737827  0.37363     H
H     0.932369 0.737828 0.456171     H
C     0.932489  0.12321  0.22215     C
C     0.932489  0.22215  0.22215     C
C     0.932489 0.222151 0.123209     C
F      0.93304 0.378559  0.67196     F
F      0.93304  0.67196  0.51644     F
C     0.933939 0.236381 0.602979     C
C     0.933939  0.60298 0.726699     C
C      0.93394  0.23638 0.726699     C
C      0.93394 0.602979  0.23638     C
C      0.93394 0.726699 0.602979     C
C      0.93394   0.7267  0.23638     C
C     0.937089  0.34639 0.346391     C
C     0.937089 0.870129 0.346391     C
C      0.93709  0.34639  0.87013     C
C     0.937919  0.27858  0.57186     C
C     0.937919  0.57186 0.278579     C
C      0.93792 0.278579 0.711639     C
C      0.93792 0.571859 0.711639     C
C      0.93792 0.711639 0.278579     C
C      0.93792 0.711639  0.57186     C
C     0.937989  0.33209  0.75983     C
C     0.937989 0.470089 0.332091     C
C     0.937989  0.75983 0.332091     C
C      0.93799  0.33209 0.470089     C
C      0.93799  0.47009  0.75983     C
C      0.93799 0.759829 0.470089     C
H     0.939088  0.21579 0.736587     H
H     0.939088 0.736586  0.21579     H
H     0.939089  0.21579 0.608534     H
H     0.939089 0.608534  0.21579     H
H     0.939089 0.608534 0.736587     H
H      0.93909 0.736586 0.608534     H
C     0.941339 0.313579  0.78314     C
C     0.941339  0.46194  0.78314     C
C     0.941339 0.783139 0.313579     C
C     0.941339 0.783139  0.46194     C
C      0.94134 0.313579  0.46194     C
C     0.941341 0.461939 0.313579     C
C     0.941868  0.91945  0.79913     C
C     0.941869  0.79913  0.83955     C
C     0.941869  0.79913 0.919449     C
C     0.941869  0.83955 0.919449     C
C     0.941869 0.919449  0.83955     C
C      0.94187 0.839549  0.79913     C
O     0.943539 0.169221 0.712559     O
O     0.943539  0.67468 0.712559     O
O     0.943539  0.71256 0.674679     O
O      0.94354  0.16922 0.674679     O
O      0.94354  0.67468 0.169219     O
O      0.94354  0.71256 0.169219     O
C     0.945549 0.251289  0.72529     C
C     0.945549  0.25129  0.57787     C
C     0.945549 0.577869  0.72529     C
C     0.945549  0.72529  0.57787     C
C      0.94555  0.57787 0.251289     C
C      0.94555 0.725289 0.251289     C
O     0.949218 0.696341 0.316939     O
O     0.949219  0.31694 0.537499     O
O     0.949219  0.31694  0.69634     O
O     0.949219   0.5375  0.69634     O
O     0.949219  0.69634 0.537499     O
O      0.94922 0.537499 0.316939     O
H     0.949444 0.786892 0.855306     H
H     0.949444 0.855305 0.786892     H
H     0.949444 0.908357 0.786892     H
H     0.949445  0.78689 0.908357     H
H     0.949445 0.855305 0.908357     H
H     0.949445 0.908356 0.855306     H
C     0.952079   0.1354  0.20626     C
C     0.952079  0.20626  0.20626     C
C     0.952079 0.206261   0.1354     C
C     0.952099   0.1585 0.694699     C
C       0.9521 0.694699   0.1585     C
C       0.9521   0.6947 0.694699     C
C     0.954229 0.322649  0.73919     C
C     0.954229 0.483929  0.73919     C
C     0.954229  0.73919  0.32265     C
C      0.95423  0.48393  0.32265     C
C      0.95423 0.739189 0.483929     C
C     0.954231 0.322649 0.483929     C
C     0.954299  0.29076 0.547601     C
C     0.954299  0.29076  0.70734     C
C     0.954299   0.5476  0.29076     C
C     0.954299   0.5476  0.70734     C
C     0.954299 0.707339 0.547601     C
C     0.954299  0.70734  0.29076     C
C     0.954739 0.816799 0.816799     C
C     0.954739   0.8168 0.911659     C
C     0.954739  0.91166 0.816799     C
H     0.955428 0.294589 0.783608     H
H     0.955429 0.294589 0.466374     H
H     0.955429 0.466374 0.783608     H
H     0.955429 0.783607 0.466374     H
H     0.955429 0.783608 0.294588     H
H      0.95543 0.466373 0.294588     H
H     0.957806 0.338561 0.582108     H
H     0.957807  0.33856 0.621524     H
H     0.957807 0.582107 0.338559     H
H     0.957807 0.621524 0.338559     H
H     0.957808 0.582108 0.621524     H
H     0.957808 0.621523 0.582108     H
O     0.959129 0.486451  0.33839     O
O     0.959129 0.486451 0.716029     O
O     0.959129 0.716029  0.33839     O
O     0.959129 0.716031 0.486449     O
O      0.95913 0.338389 0.486449     O
O      0.95913  0.33839 0.716029     O
H     0.959947 0.242152   0.5635     H
H     0.959947 0.242152   0.7344     H
H     0.959947 0.563499 0.242153     H
H     0.959947 0.563499   0.7344     H
H     0.959947   0.7344   0.5635     H
H     0.959948 0.734399 0.242153     H
H      0.96097 0.414507 0.455133     H
H      0.96097 0.455133 0.669389     H
H      0.96097 0.455134 0.414506     H
H     0.960971 0.414505 0.669389     H
H     0.960971 0.669388 0.414506     H
H     0.960971 0.669388 0.455133     H
O     0.962189  0.13921 0.183071     O
O     0.962189  0.21553 0.139211     O
O     0.962189  0.21553 0.183071     O
O      0.96219  0.13921 0.215529     O
O      0.96219 0.183069 0.139211     O
O      0.96219  0.18307 0.215529     O
Cr    0.964369  0.34617  0.50981    Cr
Cr    0.964369  0.50981  0.34617    Cr
Cr    0.964369  0.50981 0.679649    Cr
Cr    0.964369  0.67965  0.50981    Cr
Cr     0.96437 0.679649  0.34617    Cr
Cr    0.964371 0.346169 0.679649    Cr
C      0.96576  0.33816  0.33816     C
C      0.96576  0.33816 0.857919     C
C      0.96576 0.857919  0.33816     C
H      0.96936 0.858888 0.369369     H
H     0.969361  0.30238 0.369369     H
H     0.969361 0.302382 0.858888     H
H     0.969361 0.369369  0.30238     H
H     0.969361 0.369369 0.858888     H
H     0.969362 0.858888  0.30238     H
O     0.969719   0.2993 0.485219     O
O     0.969719   0.2993 0.745761     O
O     0.969719  0.48522 0.299299     O
O      0.96972 0.485219 0.745761     O
O      0.96972 0.745759 0.299299     O
O      0.96972  0.74576 0.485219     O
O     0.972159 0.274899  0.71834     O
O     0.972159   0.2749 0.534599     O
O     0.972159   0.5346   0.2749     O
O     0.972159  0.71834   0.2749     O
O      0.97216 0.534599  0.71834     O
O      0.97216 0.718339 0.534599     O
C      0.97446 0.339739 0.604199     C
C      0.97446 0.339741 0.581599     C
C      0.97446   0.5816 0.339741     C
C      0.97446   0.5816 0.604199     C
C      0.97446 0.604199 0.339741     C
C      0.97446   0.6042 0.581599     C
O     0.975288  0.64465  0.53087     O
O     0.975289  0.34919  0.53087     O
O     0.975289  0.53087 0.644649     O
O      0.97529  0.34919 0.644649     O
O      0.97529 0.530869 0.349189     O
O      0.97529 0.644651 0.349189     O
C     0.977029  0.81614  0.89069     C
C     0.977029  0.89069 0.816139     C
C     0.977031  0.81614 0.816139     C
C     0.978759 0.439699  0.66492     C
C     0.978759 0.664918   0.4397     C
C      0.97876 0.416619   0.4397     C
C      0.97876  0.41662  0.66492     C
C      0.97876   0.4397 0.416621     C
C      0.97876  0.66492 0.416621     C
C     0.979609 0.313291  0.35069     C
C      0.97961  0.14589  0.68725     C
C      0.97961 0.313291 0.856409     C
C      0.97961 0.350689 0.313291     C
C      0.97961  0.35069 0.856409     C
C      0.97961  0.68725  0.14589     C
C      0.97961  0.68725  0.68725     C
C      0.97961 0.856409 0.313291     C
C      0.97961 0.856409  0.35069     C
H      0.98149 0.649391 0.715044     H
H      0.98149 0.715044 0.649391     H
O      0.98149 0.801129 0.879229     O
O      0.98149 0.838149 0.801129     O
O      0.98149  0.83815 0.879229     O
O      0.98149 0.879229 0.801129     O
O      0.98149  0.87923 0.838149     O
H     0.981491 0.154072 0.715044     H
H     0.981491 0.154074 0.649391     H
H     0.981491 0.649391 0.154074     H
H     0.981491 0.715044 0.154074     H
O     0.981491 0.801129 0.838149     O
O     0.983059 0.368159  0.67096     O
O     0.983059 0.477819  0.67096     O
O     0.983059  0.67096 0.368159     O
O     0.983059 0.670961 0.477819     O
O      0.98306  0.36816 0.477819     O
O      0.98306 0.477819 0.368159     O
F     0.983889  0.13815  0.23981     F
O      0.98747 0.170843 0.170843     O
Cr    0.989569  0.15227  0.20589    Cr
Cr    0.989569 0.205889 0.152271    Cr
Cr     0.98957  0.15227 0.152271    Cr
C     0.992558 0.148421  0.69802     C
C     0.992559  0.69802  0.14842     C
C      0.99256  0.14842 0.660999     C
C      0.99256 0.660999  0.14842     C
C      0.99256 0.660999  0.69802     C
C     0.992561 0.698019 0.660999     C
C     0.996478  0.60388  0.55834     C
C     0.996479 0.558339  0.60388     C
C     0.996479  0.55834   0.3413     C
C      0.99648 0.341299  0.60388     C
C      0.99648   0.3413  0.55834     C
C      0.99648  0.60388   0.3413     C
C     0.996519  0.34304 0.534359     C
C     0.996519 0.534359  0.34304     C
C     0.996519  0.62608 0.534359     C
C      0.99652 0.534359 0.626079     C
C      0.99652  0.62608  0.34304     C
C     0.996521 0.343039 0.626079     C
Cr    0.99999916 0.715899 0.284101    Cr
O     0.99999948  0.68377  0.31623     O
Cr    0.99999962 0.284099   0.7159    Cr
O     0.99999975  0.31623      0.5     O
Cr    0.99999976   0.7159      0.5    Cr
O     0.99999984      0.5  0.31623     O
F     0.9999999 0.250459      0.5     F
O     0.99999995  0.31623 0.683769     O
Cr    0.99999998 0.499999   0.7159    Cr
