data_I
_chemical_name_common  '/home/dharunkraja/Desktop/D/MOFSNN_D/CGCNN_MT/data/WS24/clean_cifs/SNU-80'
_cell_length_a 24.80764
_cell_length_b 24.80764
_cell_length_c 12.22332
_cell_angle_alpha 90.00000
_cell_angle_beta  90.00000
_cell_angle_gamma 90.00000
_space_group_name_H-M_alt      'P 1'


loop_
_space_group_symop_operation_xyz
  'x, y, z'

loop_
_atom_site_label
_atom_site_fract_x
_atom_site_fract_y
_atom_site_fract_z
_atom_site_type_symbol
C      0.00434  0.09444  0.07617     C
C      0.00434  0.40564  0.42397     C
C     0.006511  0.14837  0.24921     C
C     0.006511  0.35177  0.25081     C
H     0.00813951  0.50814   0.8424     H
H     0.00813951  0.99186 0.657605     H
C      0.00935  0.15247 0.124611     C
C      0.00935  0.34767 0.375411     C
H     0.0094776  0.18845 0.284712     H
H     0.0094776  0.31155  0.21529     H
O      0.01262 0.5900316  0.48154     O
O      0.01262 0.9099716  0.01854     O
Cu    0.020202 0.520202 0.408265    Cu
Cu    0.020202 0.979802 0.091745    Cu
O      0.02152  0.05712  0.13254     O
O      0.02152  0.44292  0.36754     O
C      0.02292  0.52292  0.15837     C
C      0.02292  0.97712  0.34177     C
H     0.0316527  0.63002  0.77299     H
H     0.0316527 0.869977 0.727014     H
H     0.0334141  0.72648  0.62395     H
H     0.0334141 0.773523 0.876055     H
H     0.0356876  0.69021  0.49853     H
H     0.0356876 0.809788 0.00146619     H
H     0.0357575 0.535758 0.985222     H
H     0.0357575 0.964242 0.514778     H
C      0.03678  0.68667 0.587286     C
C      0.03678  0.81347 0.912686     C
H     0.0396796  0.12351 0.278705     H
H     0.0396796 0.376495   0.2213     H
N     0.0453116 0.5453116  0.24964     N
N     0.0453116 0.9546916  0.25044     N
C      0.04532  0.54532  0.07007     C
C      0.04532  0.95472  0.43007     C
H     0.0494329 0.842742 0.527808     H
O      0.05712  0.02152  0.86746     O
O      0.05712  0.47852  0.63254     O
C      0.06267  0.17627   0.0932     C
C      0.06267  0.32387   0.4072     C
H     0.0647758  0.17989 0.00433292     H
H     0.0647758 0.320111  0.49567     H
H     0.0667948   0.2159 0.130067     H
H     0.0667948 0.284103  0.36993     H
H     0.0745444  0.66805  0.61222     H
H     0.0745444 0.831949 0.887781     H
H     0.078733 0.691405   0.0864     H
C     0.0812018 0.5812018  0.21644     C
C     0.0812018 0.9188018  0.28364     C
N     0.0817916 0.5817916  0.10434     N
N     0.0817916 0.9182116  0.39574     N
O     0.0900316  0.51262  0.48154     O
O     0.0900316  0.98742  0.01854     O
C      0.09304  0.84805  0.53019     C
C      0.09444  0.00434  0.92383     C
C      0.09444  0.49574  0.57617     C
H     0.0949586  0.15011 0.121639     H
H     0.0949586 0.349893  0.37836     H
H     0.101048 0.653086  0.31808     H
H     0.101048 0.846914 0.181923     H
H     0.102814 0.789892 0.656452     H
C      0.10874  0.67234  0.03417     C
C      0.11492  0.61492  0.28437     C
C      0.11492  0.88512  0.21577     C
C      0.11602  0.61602  0.03585     C
C      0.11602  0.88402  0.46425     C
C      0.12304  0.81755  0.60068     C
H     0.123505  0.03968 0.721295     H
H     0.123505  0.46032   0.7787     H
H     0.130023 0.531653  0.77299     H
H     0.130023 0.968347 0.727014     H
H     0.135149 0.746365 0.962117     H
C      0.14044  0.70284  0.96467     C
C      0.14837 0.006511  0.75079     C
C      0.14837 0.493511  0.74921     C
H     0.150107  0.09496 0.878361     H
H     0.150107 0.405041  0.62164     H
C      0.15205  0.59304  0.96999     C
C      0.15247  0.00935 0.875389     C
C      0.15247  0.49075 0.624611     C
H     0.154456 0.724696  0.69848     H
H     0.154456 0.775304  0.80152     H
H     0.157258 0.549433 0.972192     H
H     0.167936 0.574551  0.61182     H
H     0.167936 0.925449  0.88818     H
H     0.168412 0.553985  0.34581     H
H     0.168412 0.946015 0.154191     H
C      0.17138  0.59291   0.3052     C
C      0.17138  0.90711   0.1952     C
C      0.17234  0.89134  0.46597     C
C      0.17627  0.06267   0.9068     C
C      0.17627  0.43747   0.5932     C
C     0.1787816 0.6787816  0.89804     C
C     0.1787816 0.8212216  0.60204     C
C      0.17982     0.75     0.75     C
H     0.179889  0.06478 0.99566708     H
H     0.179889 0.435224  0.50433     H
C      0.18255  0.62304  0.89948     C
C      0.18667  0.53678 0.587314     C
C      0.18667  0.96338 0.912686     C
H      0.18845  0.00948 0.715288     H
H      0.18845 0.490522  0.78471     H
H     0.190398 0.535557  0.49857     H
H     0.190398 0.964443 0.00142766     H
H     0.191405 0.921267 0.413602     H
H     0.192267 0.588079  0.22734     H
H     0.192267 0.911921 0.272659     H
H     0.193549 0.620905  0.35665     H
H     0.193549 0.879095 0.143348     H
C      0.20284  0.85964  0.53547     C
H     0.210108 0.602814 0.843548     H
C     0.2135713 0.7135713  0.82374     C
C     0.2135713 0.7864313  0.67634     C
H     0.215897  0.06679 0.869933     H
H     0.215897 0.433205  0.63007     H
H     0.224656 0.724656 0.554463     H
H     0.224656 0.775344 0.945537     H
H     0.224696 0.654456  0.69848     H
H     0.224696 0.845544  0.80152     H
H     0.226406 0.533538  0.62431     H
H     0.226406 0.966462 0.875694     H
H     0.246365 0.864851 0.537883     H
C         0.25  0.67982     0.75     C
C         0.25     0.75  0.60594     C
C         0.25     0.75  0.89414     C
C         0.25  0.82022     0.75     C
H     0.253635 0.635149 0.537883     H
H     0.273523  0.53341 0.876055     H
H     0.273594 0.966462  0.62431     H
H     0.275304 0.654456  0.80152     H
H     0.275304 0.845544  0.69848     H
H     0.275344 0.724656 0.945537     H
H     0.275344 0.775344 0.554463     H
H     0.284103  0.06679  0.63007     H
H     0.284103  0.43321 0.869933     H
C     0.2864313 0.7135713  0.67634     C
C     0.2864313 0.7864313  0.82374     C
H     0.289892 0.897186 0.843548     H
C      0.29724  0.64044  0.53547     C
H     0.308595 0.578733 0.413602     H
H     0.309602 0.964443  0.49857     H
H     0.309788  0.53569 0.00146619     H
H      0.31155  0.00948  0.78471     H
H      0.31155  0.49052 0.715288     H
C      0.31333  0.53678 0.912686     C
C      0.31333  0.96338 0.587286     C
C      0.31755  0.87704  0.89948     C
H     0.320111  0.06478  0.50433     H
H     0.320111  0.43522 0.99566708     H
C      0.32022     0.75     0.75     C
C     0.3212216 0.6787816  0.60204     C
C     0.3212216 0.8212216  0.89804     C
C      0.32373  0.06267   0.5928     C
C      0.32373  0.43747   0.9068     C
C      0.32774  0.60874  0.46597     C
H     0.331949  0.57454 0.887781     H
H     0.332064 0.925449  0.61182     H
H     0.342742 0.950567 0.972192     H
H     0.345544 0.724696  0.80152     H
H     0.345544 0.775304  0.69848     H
H     0.346914 0.601048 0.181923     H
H     0.346914 0.898952  0.31808     H
C      0.34753  0.00935 0.624589     C
C      0.34753  0.49075 0.875389     C
C      0.34805  0.90704  0.96999     C
H     0.349893  0.09496  0.62164     H
H     0.349893  0.40504 0.878361     H
C      0.35163 0.006511  0.74919     C
C      0.35163 0.493511  0.75079     C
C      0.35964  0.79724  0.96467     C
H     0.364851 0.753635 0.962117     H
H     0.369977  0.53165 0.727014     H
H     0.369977 0.968347  0.77299     H
H     0.376495  0.03968   0.7787     H
H     0.376495  0.46032 0.721295     H
C      0.37704  0.68255  0.60068     C
H     0.379095 0.693549 0.143348     H
H     0.379095 0.806451  0.35665     H
C      0.38402  0.61602  0.46425     C
C      0.38402  0.88402  0.03585     C
C      0.38512  0.61492  0.21577     C
C      0.38512  0.88512  0.28437     C
C      0.39134  0.82774  0.03417     C
H     0.397186 0.710108 0.656452     H
H     0.405041  0.15011  0.37836     H
H     0.405041 0.349893 0.121639     H
C      0.40556  0.00434  0.57603     C
C      0.40556  0.49574  0.92383     C
C      0.40704  0.65205  0.53019     C
C      0.40711  0.67138   0.1952     C
C      0.40711  0.82878   0.3052     C
O     0.4099684  0.51262  0.01854     O
O     0.4099684  0.98742  0.48146     O
H     0.411921 0.692267 0.272659     H
H     0.411921 0.807733  0.22734     H
N     0.4182116 0.5817916  0.39574     N
N     0.4182116 0.9182116  0.10434     N
C     0.4188018 0.5812018  0.28364     C
C     0.4188018 0.9188018  0.21644     C
H     0.421267 0.808595   0.0864     H
H     0.425449 0.832064  0.61182     H
H     0.425456  0.66805 0.887781     H
H     0.433205   0.2159  0.36993     H
H     0.433205 0.284103 0.130067     H
H     0.435224  0.17989  0.49567     H
H     0.435224 0.320111 0.00433292     H
C      0.43733  0.17627   0.4068     C
C      0.43747  0.32387   0.0932     C
O      0.44288  0.02152  0.63246     O
O      0.44288  0.47852  0.86746     O
H     0.446015 0.668412 0.154191     H
H     0.446015 0.831588  0.34581     H
H     0.450567 0.657258 0.527808     H
N     0.4546916 0.5453116  0.25044     N
N     0.4546916 0.9546916  0.24964     N
C      0.45472  0.54532  0.43007     C
C      0.45472  0.95472  0.07007     C
H      0.46032  0.12351   0.2213     H
H      0.46032 0.376495 0.278705     H
C      0.46322  0.68667 0.912686     C
C      0.46338  0.81347 0.587314     C
H     0.464242 0.535758 0.514778     H
H     0.464242 0.964242 0.985222     H
H     0.464312  0.69021 0.00146619     H
H     0.464443 0.809602  0.49857     H
H     0.466462 0.773594  0.62431     H
H     0.466586  0.72648 0.876055     H
H     0.468347  0.63002 0.727014     H
H     0.468347 0.869977  0.77299     H
C      0.47712  0.52292  0.34177     C
C      0.47712  0.97712  0.15837     C
O      0.47848  0.05712  0.36746     O
O      0.47852  0.44292  0.13254     O
Cu    0.479798 0.520202 0.091745    Cu
Cu    0.479798 0.979802 0.408255    Cu
O      0.48738 0.5900316  0.01854     O
O      0.48742 0.9099716  0.48154     O
H     0.490522  0.18845  0.21529     H
H     0.490522  0.31155 0.284712     H
C      0.49065  0.15247 0.375389     C
C      0.49075  0.34767 0.124611     C
H      0.49186  0.50814 0.657605     H
H      0.49186  0.99186   0.8424     H
C     0.493489  0.14837  0.25079     C
C     0.493511  0.35177  0.24921     C
C      0.49566  0.09444  0.42383     C
C      0.49574  0.40564  0.07617     C
C      0.50426  0.59444  0.92383     C
C      0.50434  0.90564  0.57617     C
C     0.506489  0.64837  0.75079     C
C     0.506511  0.85177  0.74921     C
H      0.50814  0.00814   0.1576     H
H      0.50814  0.49186 0.342395     H
C      0.50925  0.65247 0.875389     C
C      0.50935  0.84767 0.624611     C
H     0.509478  0.68845 0.715288     H
H     0.509478  0.81155  0.78471     H
O      0.51258 0.0900316  0.51846     O
O      0.51258 0.4099716  0.98146     O
Cu    0.520198 0.020202 0.591735    Cu
Cu    0.520198 0.479802 0.908255    Cu
O      0.52148  0.55712  0.86746     O
O      0.52148  0.94292  0.63246     O
C      0.52288  0.02292  0.84163     C
C      0.52288  0.47712  0.65823     C
H     0.531653  0.13002  0.22701     H
H     0.531653 0.369977 0.272986     H
H     0.533538  0.22641  0.37569     H
H     0.533538 0.273594 0.124306     H
H     0.535557   0.1904  0.50143     H
H     0.535557 0.309602 0.99857234     H
H     0.535758  0.03576 0.014778     H
H     0.535758  0.46424 0.485222     H
C      0.53662  0.18667 0.412686     C
C      0.53678  0.31347 0.087314     C
H      0.53968  0.62351 0.721295     H
H      0.53968 0.876495   0.7787     H
C      0.54528  0.04532  0.92993     C
C      0.54528  0.45472  0.56993     C
N     0.5453084 0.0453116  0.75036     N
N     0.5453084 0.4546916  0.74956     N
H     0.549433  0.15726 0.027808     H
H     0.549433  0.34274 0.472192     H
H     0.553985  0.16841  0.65419     H
H     0.553985  0.33159 0.845809     H
O      0.55712  0.52152  0.13254     O
O      0.55712  0.97852  0.36754     O
C      0.56253  0.67627   0.9068     C
C      0.56267  0.82387   0.5932     C
H     0.564776  0.67989 0.99566708     H
H     0.564776 0.820111  0.50433     H
H     0.566795   0.7159 0.869933     H
H     0.566795 0.784103  0.63007     H
H     0.574551  0.16794  0.38818     H
H     0.574551 0.332064  0.11182     H
C     0.5811982 0.0812018  0.78356     C
C     0.5811982 0.4188018  0.71636     C
N     0.5817884 0.0817916  0.89566     N
N     0.5817884 0.4182116  0.60426     N
H     0.588079  0.19227  0.77266     H
H     0.588079  0.30773 0.727341     H
O     0.5900284  0.01262  0.51846     O
O     0.5900284  0.48742  0.98146     O
C      0.59289  0.17138   0.6948     C
C      0.59289  0.32878   0.8048     C
C      0.59296  0.15205  0.03001     C
C      0.59296  0.34805  0.46981     C
C      0.59444  0.50434  0.07617     C
C      0.59444  0.99574  0.42397     C
H     0.594959  0.65011 0.878361     H
H     0.594959 0.849893  0.62164     H
H     0.602814  0.21011 0.156452     H
H     0.602814  0.28989 0.343548     H
C      0.61488  0.11492  0.71563     C
C      0.61488  0.38512  0.78423     C
C      0.61598  0.11602  0.96415     C
C      0.61598  0.38402  0.53575     C
H     0.620905  0.19355  0.64335     H
H     0.620905  0.30645 0.856652     H
C      0.62296  0.18255  0.10052     C
C      0.62296  0.31755  0.39932     C
H     0.623505  0.53968 0.278705     H
H     0.623505  0.96032   0.2213     H
H     0.630023  0.03165  0.22701     H
H     0.630023 0.468347 0.272986     H
C      0.64837 0.506511  0.24921     C
C      0.64837 0.993511  0.25081     C
H     0.650107 0.594959 0.121639     H
H     0.650107 0.905041  0.37836     H
C      0.65247  0.50935 0.124611     C
C      0.65247  0.99075 0.375411     C
H     0.653086  0.10105  0.68192     H
H     0.653086  0.39895 0.818077     H
H     0.654456   0.2247  0.30152     H
H     0.654456   0.2753  0.19848     H
H     0.667936  0.07455  0.38818     H
H     0.668051 0.425456 0.112219     H
C      0.67226  0.10874  0.96583     C
C      0.67226  0.39134  0.53403     C
C      0.67627  0.56267   0.0932     C
C      0.67627  0.93747   0.4072     C
C     0.6787784 0.1787816  0.10196     C
C     0.6787784 0.3212216  0.39796     C
C      0.67978     0.25     0.25     C
H     0.679889 0.564776 0.00433292     H
H     0.679889 0.935224  0.49567     H
C      0.68667  0.03678 0.412714     C
C      0.68667  0.46338 0.087314     C
H      0.68845 0.509478 0.284712     H
H      0.68845 0.990522  0.21529     H
H     0.690212 0.464312 0.99853381     H
H     0.690398  0.03556  0.50143     H
H     0.691405  0.07873   0.9136     H
H     0.691405  0.42127 0.586398     H
C      0.70276  0.14044  0.03533     C
C      0.70276  0.35964  0.46453     C
C     0.7135687 0.2135713  0.17626     C
C     0.7135687 0.2864313  0.32366     C
H     0.715897 0.566795 0.130067     H
H     0.715897 0.933205  0.36993     H
H     0.724656  0.22466 0.445537     H
H     0.724656  0.27534 0.054463     H
H     0.724696  0.15446  0.30152     H
H     0.724696  0.34554  0.19848     H
H     0.726406  0.03354  0.37569     H
H     0.726477 0.466586 0.123945     H
H     0.746365  0.13515 0.037883     H
H     0.746365  0.36485 0.462117     H
C         0.75  0.17982     0.25     C
C         0.75     0.25  0.10586     C
C         0.75     0.25  0.39406     C
C         0.75  0.32022     0.25     C
H     0.753635  0.13515 0.462117     H
H     0.773594  0.03354 0.124306     H
H     0.773594  0.46646  0.37569     H
H     0.775304  0.15446  0.19848     H
H     0.775304  0.34554  0.30152     H
H     0.775344  0.22466 0.054463     H
H     0.775344  0.27534 0.445537     H
H     0.784103  0.56679  0.36993     H
H     0.784103 0.933205 0.130067     H
C     0.7864287 0.2135713  0.32366     C
C     0.7864287 0.2864313  0.17626     C
H     0.789892  0.39719 0.156452     H
C      0.79716  0.14044  0.46453     C
H     0.806451  0.12091 0.856652     H
H     0.807733  0.08808 0.727341     H
H     0.808595  0.07873 0.586398     H
H     0.809602  0.03556 0.99857234     H
H     0.809602  0.46444  0.50143     H
H      0.81155  0.50948  0.21529     H
H      0.81155 0.990522 0.284712     H
C      0.81333  0.03678 0.087314     C
C      0.81333  0.46338 0.412686     C
C      0.81745  0.37704  0.10052     C
H     0.820111  0.56478  0.49567     H
H     0.820111 0.935224 0.00433292     H
C      0.82018     0.25     0.25     C
C     0.8212184 0.1787816  0.39796     C
C     0.8212184 0.3212216  0.10196     C
C      0.82373  0.56267   0.4068     C
C      0.82373  0.93747   0.0932     C
C      0.82766  0.10874  0.53403     C
C      0.82862  0.09291   0.8048     C
H     0.831588  0.05399 0.845809     H
H     0.832064  0.07455  0.11182     H
H     0.832064  0.42545  0.38818     H
H     0.842742  0.45057 0.027808     H
H     0.845544   0.2247  0.19848     H
H     0.845544   0.2753  0.30152     H
H     0.846914  0.39895  0.68192     H
C      0.84753  0.50935 0.375389     C
C      0.84753  0.99075 0.124611     C
C      0.84795  0.40704  0.03001     C
H     0.849893  0.59496  0.37836     H
H     0.849893 0.905041 0.121639     H
C      0.85163 0.506511  0.25079     C
C      0.85163 0.993511  0.24921     C
C      0.85956  0.29724  0.03533     C
H     0.864851  0.25363 0.037883     H
H     0.869977  0.03165 0.272986     H
H     0.869977  0.46835  0.22701     H
H     0.876495  0.53968   0.2213     H
H     0.876495  0.96032 0.278705     H
C      0.87696  0.18255  0.39932     C
H     0.879095  0.30645  0.64335     H
C      0.88398  0.11602  0.53575     C
C      0.88398  0.38402  0.96415     C
C      0.88508  0.11492  0.78423     C
C      0.88508  0.38512  0.71563     C
C      0.89126  0.32774  0.96583     C
H     0.897186  0.21011 0.343548     H
H     0.898952  0.15309 0.818077     H
H     0.9050414  0.65011  0.62164     H
H     0.9050414 0.849893 0.878361     H
C      0.90556  0.50434  0.42383     C
C      0.90556  0.99574  0.07617     C
C      0.90696  0.15205  0.46981     C
C      0.90709  0.32878   0.6948     C
O     0.9099684  0.01262  0.98146     O
O     0.9099684  0.48742  0.51846     O
H     0.911921  0.30773  0.77266     H
N     0.9182084 0.0817916  0.60426     N
N     0.9182084 0.4182116  0.89566     N
C     0.9187982 0.0812018  0.71636     C
C     0.9187982 0.4188018  0.78356     C
H     0.921267   0.3086   0.9136     H
H     0.9254556  0.16805 0.112219     H
H     0.9254556 0.331949  0.38778     H
H     0.9332052   0.7159  0.63007     H
H     0.9332052 0.784103 0.869933     H
H     0.9352242  0.67989  0.50433     H
H     0.9352242 0.820111 0.99566708     H
C      0.93733  0.67627   0.5928     C
C      0.93733  0.82387   0.9068     C
O      0.94288  0.52152  0.36754     O
O      0.94288  0.97852  0.13254     O
H     0.946015  0.33159  0.65419     H
H     0.9505671  0.15726 0.472192     H
C      0.95468  0.04532  0.56993     C
C      0.95468  0.45472  0.92993     C
N     0.9546884 0.0453116  0.74956     N
N     0.9546884 0.4546916  0.75036     N
H     0.9603204  0.62351   0.7787     H
H     0.9603204 0.876495 0.721295     H
C      0.96322  0.18667 0.087314     C
C      0.96322  0.31347 0.412714     C
H     0.9642425  0.03576 0.485222     H
H     0.9642425  0.46424 0.014778     H
H     0.9643124  0.19021 0.99853381     H
H     0.9643124 0.309788  0.50147     H
H     0.9665859  0.22648 0.123945     H
H     0.9665859 0.273523  0.37605     H
H     0.9683473  0.13002 0.272986     H
H     0.9683473 0.369977  0.22701     H
C      0.97708  0.02292  0.65823     C
C      0.97708  0.47712  0.84163     C
O      0.97848  0.55712  0.63246     O
O      0.97848  0.94292  0.86746     O
Cu    0.979798 0.020202 0.908255    Cu
Cu    0.979798 0.479802 0.591745    Cu
O      0.98738 0.0900316  0.98146     O
O      0.98738 0.4099716  0.51854     O
H     0.9905224  0.68845  0.78471     H
H     0.9905224  0.81155 0.715288     H
C      0.99065  0.65247 0.624589     C
C      0.99065  0.84767 0.875389     C
H     0.99186049  0.00814 0.342395     H
H     0.99186049  0.49186   0.1576     H
C     0.993489  0.64837  0.74919     C
C     0.993489  0.85177  0.75079     C
C      0.99566  0.59444  0.57603     C
C      0.99566  0.90564  0.92383     C
