data_I
_chemical_name_common  '/home/dharunkraja/Desktop/D/MOFSNN_D/CGCNN_MT/data/WS24/clean_cifs/UiO-66'
_cell_length_a 14.67267
_cell_length_b 14.67267
_cell_length_c 14.67267
_cell_angle_alpha 60.00000
_cell_angle_beta  60.00000
_cell_angle_gamma 60.00000
_space_group_name_H-M_alt      'P 1'


loop_
_space_group_symop_operation_xyz
  'x, y, z'

loop_
_atom_site_label
_atom_site_fract_x
_atom_site_fract_y
_atom_site_fract_z
_atom_site_type_symbol
C     0.00404815 0.00404815 0.30072027     C
C     0.00404815 0.00404815 0.69118343     C
C     0.00404815 0.30072027 0.00404815     C
C     0.00404815 0.30072027 0.69118343     C
C     0.00404815 0.69118343 0.00404815     C
C     0.00404815 0.69118343 0.30072027     C
C     0.00621276 0.00621276 0.39944213     C
C     0.00621276 0.00621276 0.58813235     C
C     0.00621276 0.39944213 0.00621276     C
C     0.00621276 0.39944213 0.58813235     C
C     0.00621276 0.58813235 0.00621276     C
C     0.00621276 0.58813235 0.39944213     C
O     0.05041792 0.05041792 0.05041792     O
O     0.05041792 0.05041792 0.84874624     O
O     0.05041792 0.84874624 0.05041792     O
O     0.07989233 0.26208126 0.73275278     O
O     0.07989233 0.26208126 0.92527363     O
O     0.07989233 0.73275278 0.26208126     O
O     0.07989233 0.73275278 0.92527363     O
O     0.07989233 0.92527363 0.26208126     O
O     0.07989233 0.92527363 0.73275278     O
C     0.08905212 0.44630376 0.54039384     C
C     0.08905212 0.44630376 0.92425028     C
C     0.08905212 0.54039384 0.44630376     C
C     0.08905212 0.54039384 0.92425028     C
C     0.08905212 0.92425028 0.44630376     C
C     0.08905212 0.92425028 0.54039384     C
Zr    0.11979583 0.11979583 0.88020417    Zr
Zr    0.11979583 0.88020417 0.11979583    Zr
Zr    0.11979583 0.88020417 0.88020417    Zr
H     0.15237926 0.40722896 0.57960823     H
H     0.15237926 0.40722896 0.86078355     H
H     0.15237926 0.57960823 0.40722896     H
H     0.15237926 0.57960823 0.86078355     H
H     0.15237926 0.86078355 0.40722896     H
H     0.15237926 0.86078355 0.57960823     H
O     0.20192408 0.93269197 0.93269197     O
O     0.26208126 0.07989233 0.73275278     O
O     0.26208126 0.07989233 0.92527363     O
O     0.26208126 0.73275278 0.07989233     O
O     0.26208126 0.73275278 0.92527363     O
O     0.26208126 0.92527363 0.07989233     O
O     0.26208126 0.92527363 0.73275278     O
H     0.28318743 0.90560419 0.90560419     H
C     0.30072027 0.00404815 0.00404815     C
C     0.30072027 0.00404815 0.69118343     C
C     0.30072027 0.69118343 0.00404815     C
C     0.39944213 0.00621276 0.00621276     C
C     0.39944213 0.00621276 0.58813235     C
C     0.39944213 0.58813235 0.00621276     C
H     0.40722896 0.15237926 0.57960823     H
H     0.40722896 0.15237926 0.86078355     H
H     0.40722896 0.57960823 0.15237926     H
H     0.40722896 0.57960823 0.86078355     H
H     0.40722896 0.86078355 0.15237926     H
H     0.40722896 0.86078355 0.57960823     H
C     0.44630376 0.08905212 0.54039384     C
C     0.44630376 0.08905212 0.92425028     C
C     0.44630376 0.54039384 0.08905212     C
C     0.44630376 0.54039384 0.92425028     C
C     0.44630376 0.92425028 0.08905212     C
C     0.44630376 0.92425028 0.54039384     C
C     0.54039384 0.08905212 0.44630376     C
C     0.54039384 0.08905212 0.92425028     C
C     0.54039384 0.44630376 0.08905212     C
C     0.54039384 0.44630376 0.92425028     C
C     0.54039384 0.92425028 0.08905212     C
C     0.54039384 0.92425028 0.44630376     C
H     0.57960823 0.15237926 0.40722896     H
H     0.57960823 0.15237926 0.86078355     H
H     0.57960823 0.40722896 0.15237926     H
H     0.57960823 0.40722896 0.86078355     H
H     0.57960823 0.86078355 0.15237926     H
H     0.57960823 0.86078355 0.40722896     H
C     0.58813235 0.00621276 0.00621276     C
C     0.58813235 0.00621276 0.39944213     C
C     0.58813235 0.39944213 0.00621276     C
C     0.69118343 0.00404815 0.00404815     C
C     0.69118343 0.00404815 0.30072027     C
C     0.69118343 0.30072027 0.00404815     C
O     0.73275278 0.07989233 0.26208126     O
O     0.73275278 0.07989233 0.92527363     O
O     0.73275278 0.26208126 0.07989233     O
O     0.73275278 0.26208126 0.92527363     O
O     0.73275278 0.92527363 0.07989233     O
O     0.73275278 0.92527363 0.26208126     O
O     0.84874624 0.05041792 0.05041792     O
H     0.86078355 0.15237926 0.40722896     H
H     0.86078355 0.15237926 0.57960823     H
H     0.86078355 0.40722896 0.15237926     H
H     0.86078355 0.40722896 0.57960823     H
H     0.86078355 0.57960823 0.15237926     H
H     0.86078355 0.57960823 0.40722896     H
Zr    0.88020417 0.11979583 0.11979583    Zr
Zr    0.88020417 0.11979583 0.88020417    Zr
Zr    0.88020417 0.88020417 0.11979583    Zr
H     0.90560419 0.28318743 0.90560419     H
H     0.90560419 0.90560419 0.28318743     H
H     0.90560419 0.90560419 0.90560419     H
C     0.92425028 0.08905212 0.44630376     C
C     0.92425028 0.08905212 0.54039384     C
C     0.92425028 0.44630376 0.08905212     C
C     0.92425028 0.44630376 0.54039384     C
C     0.92425028 0.54039384 0.08905212     C
C     0.92425028 0.54039384 0.44630376     C
O     0.92527363 0.07989233 0.26208126     O
O     0.92527363 0.07989233 0.73275278     O
O     0.92527363 0.26208126 0.07989233     O
O     0.92527363 0.26208126 0.73275278     O
O     0.92527363 0.73275278 0.07989233     O
O     0.92527363 0.73275278 0.26208126     O
O     0.93269197 0.20192408 0.93269197     O
O     0.93269197 0.93269197 0.20192408     O
O     0.93269197 0.93269197 0.93269197     O
