data_I
_chemical_name_common  '/home/dharunkraja/Desktop/D/MOFSNN_D/CGCNN_MT/data/WS24/clean_cifs/UiO-66-Br'
_cell_length_a 14.67267
_cell_length_b 14.67267
_cell_length_c 14.67267
_cell_angle_alpha 60.00000
_cell_angle_beta  60.00000
_cell_angle_gamma 60.00000
_space_group_name_H-M_alt      'P 1'


loop_
_space_group_symop_operation_xyz
  'x, y, z'

loop_
_atom_site_label
_atom_site_fract_x
_atom_site_fract_y
_atom_site_fract_z
_atom_site_type_symbol
O     0.06730803 0.06730803 0.06730803     O
O     0.06730803 0.06730803 0.79807592     O
O     0.06730803 0.79807592 0.06730803     O
O     0.07472637 0.26724722 0.73791874     O
O     0.07472637 0.26724722 0.92010767     O
O     0.07472637 0.73791874 0.26724722     O
O     0.07472637 0.73791874 0.92010767     O
O     0.07472637 0.92010767 0.26724722     O
O     0.07472637 0.92010767 0.73791874     O
C     0.07574972 0.45960616 0.55369624     C
C     0.07574972 0.45960616 0.91094788     C
C     0.07574972 0.55369624 0.45960616     C
C     0.07574972 0.55369624 0.91094788     C
C     0.07574972 0.91094788 0.45960616     C
C     0.07574972 0.91094788 0.55369624     C
H     0.09439581 0.09439581 0.09439581     H
H     0.09439581 0.09439581 0.71681257     H
H     0.09439581 0.71681257 0.09439581     H
Zr    0.11979583 0.11979583 0.88020417    Zr
Zr    0.11979583 0.88020417 0.11979583    Zr
Zr    0.11979583 0.88020417 0.88020417    Zr
H     0.13921645 0.42039177 0.84762074     H
H     0.13921645 0.59277104 0.42039177     H
H     0.13921645 0.84762074 0.59277104     H
O     0.15125376 0.94958208 0.94958208     O
Br    0.19541646 0.39193201 0.62265065    Br
Br    0.19541646 0.62265065 0.79000088    Br
Br    0.19541646 0.79000088 0.39193201    Br
O     0.26724722 0.07472637 0.73791874     O
O     0.26724722 0.07472637 0.92010767     O
O     0.26724722 0.73791874 0.07472637     O
O     0.26724722 0.73791874 0.92010767     O
O     0.26724722 0.92010767 0.07472637     O
O     0.26724722 0.92010767 0.73791874     O
C     0.30881657 0.69927973 0.99595185     C
C     0.30881657 0.99595185 0.69927973     C
C     0.30881657 0.99595185 0.99595185     C
Br    0.39193201 0.19541646 0.79000088    Br
C     0.41186765 0.60055787 0.99378724     C
C     0.41186765 0.99378724 0.60055787     C
C     0.41186765 0.99378724 0.99378724     C
H     0.42039177 0.13921645 0.59277104     H
H     0.42039177 0.59277104 0.13921645     H
H     0.42039177 0.59277104 0.84762074     H
H     0.42039177 0.84762074 0.13921645     H
H     0.42039177 0.84762074 0.59277104     H
C     0.45960616 0.07574972 0.55369624     C
C     0.45960616 0.07574972 0.91094788     C
C     0.45960616 0.55369624 0.07574972     C
C     0.45960616 0.55369624 0.91094788     C
C     0.45960616 0.91094788 0.07574972     C
C     0.45960616 0.91094788 0.55369624     C
C     0.55369624 0.07574972 0.45960616     C
C     0.55369624 0.07574972 0.91094788     C
C     0.55369624 0.45960616 0.07574972     C
C     0.55369624 0.45960616 0.91094788     C
C     0.55369624 0.91094788 0.07574972     C
C     0.55369624 0.91094788 0.45960616     C
H     0.59277104 0.13921645 0.84762074     H
H     0.59277104 0.42039177 0.13921645     H
H     0.59277104 0.84762074 0.13921645     H
H     0.59277104 0.84762074 0.42039177     H
C     0.60055787 0.41186765 0.99378724     C
C     0.60055787 0.99378724 0.41186765     C
C     0.60055787 0.99378724 0.99378724     C
Br    0.62265065 0.19541646 0.39193201    Br
Br    0.62265065 0.39193201 0.79000088    Br
C     0.69927973 0.30881657 0.99595185     C
C     0.69927973 0.99595185 0.30881657     C
C     0.69927973 0.99595185 0.99595185     C
H     0.71681257 0.09439581 0.09439581     H
O     0.73791874 0.07472637 0.26724722     O
O     0.73791874 0.07472637 0.92010767     O
O     0.73791874 0.26724722 0.07472637     O
O     0.73791874 0.26724722 0.92010767     O
O     0.73791874 0.92010767 0.07472637     O
O     0.73791874 0.92010767 0.26724722     O
O     0.79807592 0.06730803 0.06730803     O
H     0.84762074 0.13921645 0.42039177     H
H     0.84762074 0.13921645 0.59277104     H
H     0.84762074 0.42039177 0.13921645     H
H     0.84762074 0.42039177 0.59277104     H
H     0.84762074 0.59277104 0.13921645     H
H     0.84762074 0.59277104 0.42039177     H
Zr    0.88020417 0.11979583 0.11979583    Zr
Zr    0.88020417 0.11979583 0.88020417    Zr
Zr    0.88020417 0.88020417 0.11979583    Zr
C     0.91094788 0.07574972 0.45960616     C
C     0.91094788 0.07574972 0.55369624     C
C     0.91094788 0.45960616 0.07574972     C
C     0.91094788 0.45960616 0.55369624     C
C     0.91094788 0.55369624 0.07574972     C
C     0.91094788 0.55369624 0.45960616     C
O     0.92010767 0.07472637 0.26724722     O
O     0.92010767 0.07472637 0.73791874     O
O     0.92010767 0.26724722 0.07472637     O
O     0.92010767 0.26724722 0.73791874     O
O     0.92010767 0.73791874 0.07472637     O
O     0.92010767 0.73791874 0.26724722     O
O     0.94958208 0.15125376 0.94958208     O
O     0.94958208 0.94958208 0.15125376     O
O     0.94958208 0.94958208 0.94958208     O
C     0.99378724 0.41186765 0.60055787     C
C     0.99378724 0.41186765 0.99378724     C
C     0.99378724 0.60055787 0.41186765     C
C     0.99378724 0.60055787 0.99378724     C
C     0.99378724 0.99378724 0.41186765     C
C     0.99378724 0.99378724 0.60055787     C
C     0.99595185 0.30881657 0.69927973     C
C     0.99595185 0.30881657 0.99595185     C
C     0.99595185 0.69927973 0.30881657     C
C     0.99595185 0.69927973 0.99595185     C
C     0.99595185 0.99595185 0.30881657     C
C     0.99595185 0.99595185 0.69927973     C
