data_I
_chemical_name_common  '/home/dharunkraja/Desktop/D/MOFSNN_D/CGCNN_MT/data/WS24/clean_cifs/UiO-66-CO2H_2'
_cell_length_a 14.67267
_cell_length_b 14.67267
_cell_length_c 14.67267
_cell_angle_alpha 60.00000
_cell_angle_beta  60.00000
_cell_angle_gamma 60.00000
_space_group_name_H-M_alt      'P 1'


loop_
_space_group_symop_operation_xyz
  'x, y, z'

loop_
_atom_site_label
_atom_site_fract_x
_atom_site_fract_y
_atom_site_fract_z
_atom_site_type_symbol
C     0.00404815 0.00404815 0.30072027     C
C     0.00404815 0.00404815 0.69118343     C
C     0.00404815 0.30072027 0.00404815     C
C     0.00404815 0.30072027 0.69118343     C
C     0.00404815 0.69118343 0.00404815     C
C     0.00404815 0.69118343 0.30072027     C
C     0.00621276 0.00621276 0.39944213     C
C     0.00621276 0.00621276 0.58813235     C
C     0.00621276 0.39944213 0.00621276     C
C     0.00621276 0.39944213 0.58813235     C
C     0.00621276 0.58813235 0.00621276     C
C     0.00621276 0.58813235 0.39944213     C
O     0.05041792 0.05041792 0.05041792     O
O     0.05041792 0.05041792 0.84874624     O
O     0.05041792 0.84874624 0.05041792     O
O     0.07989233 0.26208126 0.73275278     O
O     0.07989233 0.26208126 0.92527363     O
O     0.07989233 0.73275278 0.26208126     O
O     0.07989233 0.73275278 0.92527363     O
O     0.07989233 0.92527363 0.26208126     O
O     0.07989233 0.92527363 0.73275278     O
C     0.08905212 0.44630376 0.54039384     C
C     0.08905212 0.44630376 0.92425028     C
C     0.08905212 0.54039384 0.44630376     C
C     0.08905212 0.54039384 0.92425028     C
C     0.08905212 0.92425028 0.44630376     C
C     0.08905212 0.92425028 0.54039384     C
Zr    0.11979583 0.11979583 0.88020417    Zr
Zr    0.11979583 0.88020417 0.11979583    Zr
Zr    0.11979583 0.88020417 0.88020417    Zr
H     0.15237926 0.40722896 0.57960823     H
H     0.15237926 0.40722896 0.86078355     H
H     0.15237926 0.57960823 0.40722896     H
H     0.15237926 0.86078355 0.57960823     H
C     0.18911868 0.83153308 0.40364192     C
C     0.18911875 0.57570623 0.83153314     C
O     0.19409388 0.73512467 0.4589021     O
O     0.19409401 0.61187927 0.73512471     O
O     0.20192408 0.93269197 0.93269197     O
H     0.25202553 0.93926883 0.26973196     H
H     0.25202555 0.53897349 0.93926897     H
O     0.26208126 0.07989233 0.73275278     O
O     0.26208126 0.07989233 0.92527363     O
O     0.26208126 0.73275278 0.07989233     O
O     0.26208126 0.73275278 0.92527363     O
O     0.26208126 0.92527363 0.07989233     O
O     0.26208126 0.92527363 0.73275278     O
O     0.26639167 0.85781624 0.30512618     O
O     0.26639174 0.57066572 0.85781637     O
H     0.28318743 0.90560419 0.90560419     H
O     0.29158389 0.60840736 0.23177352     O
C     0.30072027 0.00404815 0.00404815     C
C     0.30072027 0.00404815 0.69118343     C
C     0.30072027 0.69118343 0.00404815     C
O     0.32880438 0.28003299 0.54684304     O
H     0.33703175 0.29079753 0.47126325     H
O     0.37722795 0.14704093 0.69405137     O
C     0.37943146 0.17517094 0.60006426     C
C     0.38575482 0.60638765 0.16891485     C
C     0.39944213 0.00621276 0.00621276     C
C     0.39944213 0.00621276 0.58813235     C
C     0.39944213 0.58813235 0.00621276     C
H     0.40722896 0.15237926 0.86078355     H
H     0.40722896 0.57960823 0.86078355     H
H     0.40722896 0.86078355 0.15237926     H
H     0.40722896 0.86078355 0.57960823     H
O     0.43840683 0.6564455 0.17159692     O
C     0.44630376 0.08905212 0.54039384     C
C     0.44630376 0.08905212 0.92425028     C
C     0.44630376 0.54039384 0.08905212     C
C     0.44630376 0.54039384 0.92425028     C
C     0.44630376 0.92425028 0.08905212     C
C     0.44630376 0.92425028 0.54039384     C
H     0.51422663 0.64845812 0.11548837     H
O     0.52623511 0.82168014 0.37325806     O
H     0.53925847 0.26988116 0.93861197     H
C     0.54039384 0.08905212 0.44630376     C
C     0.54039384 0.08905212 0.92425028     C
C     0.54039384 0.44630376 0.08905212     C
C     0.54039384 0.44630376 0.92425028     C
C     0.54039384 0.92425028 0.08905212     C
C     0.54039384 0.92425028 0.44630376     C
O     0.57089645 0.3054938 0.857198     O
C     0.57578049 0.40398333 0.83125597     C
H     0.57960823 0.15237926 0.40722896     H
H     0.57960823 0.15237926 0.86078355     H
H     0.57960823 0.40722896 0.15237926     H
H     0.57960823 0.86078355 0.15237926     H
C     0.58202952 0.82514246 0.40996531     C
C     0.58813235 0.00621276 0.00621276     C
C     0.58813235 0.00621276 0.39944213     C
C     0.58813235 0.39944213 0.00621276     C
O     0.61186834 0.45948727 0.73494293     O
O     0.68026805 0.74704752 0.41472869     O
C     0.69118343 0.00404815 0.00404815     C
C     0.69118343 0.00404815 0.30072027     C
C     0.69118343 0.30072027 0.00404815     C
H     0.71616827 0.7601884 0.4469269     H
H     0.72182686 0.11548858 0.64845814     H
H     0.72182691 0.51422682 0.11548819     H
O     0.73275278 0.07989233 0.26208126     O
O     0.73275278 0.07989233 0.92527363     O
O     0.73275278 0.26208126 0.07989233     O
O     0.73275278 0.26208126 0.92527363     O
O     0.73275278 0.92527363 0.07989233     O
O     0.73275278 0.92527363 0.26208126     O
O     0.73355069 0.43840703 0.17159674     O
O     0.73355079 0.17159717 0.65644538     O
C     0.83894259 0.38575492 0.16891477     C
C     0.83894275 0.16891501 0.60638748     C
O     0.84874624 0.05041792 0.05041792     O
H     0.86078355 0.15237926 0.40722896     H
H     0.86078355 0.40722896 0.57960823     H
H     0.86078355 0.57960823 0.15237926     H
H     0.86078355 0.57960823 0.40722896     H
O     0.86823504 0.29158397 0.23177346     O
O     0.86823539 0.23177372 0.60840703     O
Zr    0.88020417 0.11979583 0.11979583    Zr
Zr    0.88020417 0.11979583 0.88020417    Zr
Zr    0.88020417 0.88020417 0.11979583    Zr
H     0.90560419 0.28318743 0.90560419     H
H     0.90560419 0.90560419 0.28318743     H
H     0.90560419 0.90560419 0.90560419     H
C     0.92425028 0.08905212 0.44630376     C
C     0.92425028 0.08905212 0.54039384     C
C     0.92425028 0.44630376 0.08905212     C
C     0.92425028 0.44630376 0.54039384     C
C     0.92425028 0.54039384 0.08905212     C
C     0.92425028 0.54039384 0.44630376     C
O     0.92527363 0.07989233 0.26208126     O
O     0.92527363 0.07989233 0.73275278     O
O     0.92527363 0.26208126 0.07989233     O
O     0.92527363 0.26208126 0.73275278     O
O     0.92527363 0.73275278 0.07989233     O
O     0.92527363 0.73275278 0.26208126     O
O     0.93269197 0.20192408 0.93269197     O
O     0.93269197 0.93269197 0.20192408     O
O     0.93269197 0.93269197 0.93269197     O
