data_I
_chemical_name_common  '/home/dharunkraja/Desktop/D/MOFSNN_D/CGCNN_MT/data/WS24/clean_cifs/ZIF-90'
_cell_length_a 17.27154
_cell_length_b 17.27154
_cell_length_c 17.27154
_cell_angle_alpha 90.00000
_cell_angle_beta  90.00000
_cell_angle_gamma 90.00000
_space_group_name_H-M_alt      'P 1'


loop_
_space_group_symop_operation_xyz
  'x, y, z'

loop_
_atom_site_label
_atom_site_fract_x
_atom_site_fract_y
_atom_site_fract_z
_atom_site_type_symbol
Zn         0.0     0.25      0.5    Zn
Zn         0.0      0.5     0.25    Zn
Zn         0.0      0.5     0.75    Zn
Zn         0.0     0.75      0.5    Zn
C      0.01331  0.37477  0.37477     C
C      0.01331  0.62523  0.62537     C
N      0.03231 0.315511 0.414313     N
N      0.03231 0.414313 0.315511     N
N      0.03231 0.585687 0.684511     N
N      0.03231 0.684489 0.585713     N
O     0.051411 0.114413  0.38719     O
O     0.051411  0.61281 0.885613     O
O     0.051411 0.885587  0.61299     O
H     0.0636517 0.407798 0.145535     H
C      0.06741 0.397413 0.602613     C
C      0.06741 0.602613 0.397413     C
N     0.085713 0.184511  0.53231     N
N     0.085713  0.46769 0.815511     N
N     0.085713  0.53231 0.184511     N
N     0.085713 0.815489  0.46771     N
H     0.0922022 0.354465 0.563652     H
H     0.0922022 0.645535 0.436348     H
C     0.093717 0.310216 0.360317     C
C     0.093717 0.360317 0.310216     C
C     0.093717 0.639683 0.689816     C
C     0.093717 0.689784 0.639717     C
C     0.102613 0.102613  0.43261     C
C     0.102613  0.43261 0.102613     C
C     0.102613  0.56739 0.897413     C
C     0.102613 0.897387  0.56741     C
O      0.11299 0.448611 0.614413     O
O      0.11299 0.551411 0.385613     O
O     0.114413  0.38719 0.051411     O
C      0.12537  0.12537  0.51331     C
C      0.12537  0.48669  0.87477     C
C      0.12537  0.51331  0.12537     C
C      0.12537  0.87463  0.48671     C
C     0.139717 0.189816 0.593717     C
C     0.139717 0.406283 0.810216     C
C     0.139717 0.593717 0.189816     C
C     0.139717 0.810184 0.406317     C
H     0.145535 0.0636517 0.407798     H
H     0.145535 0.592202 0.936348     H
H     0.145535 0.9363483 0.592202     H
N     0.184511 0.085713  0.53231     N
N     0.184511  0.46769 0.914313     N
N     0.184511  0.53231 0.085713     N
N     0.184511 0.914287  0.46771     N
C     0.189816 0.139717 0.593717     C
C     0.189816 0.406283 0.860317     C
C     0.189816 0.593717 0.139717     C
C     0.189816 0.860283 0.406317     C
Zn        0.25      0.0      0.5    Zn
Zn        0.25      0.5      1.0    Zn
C     0.310216 0.093717 0.360317     C
C     0.310216 0.360317 0.093717     C
C     0.310216 0.639717 0.906283     C
C     0.310216 0.906283 0.639717     C
N     0.315511  0.03231 0.414313     N
N     0.315511 0.414313  0.03231     N
N     0.315511 0.585713  0.96769     N
N     0.315511  0.96769 0.585713     N
C     0.360317 0.093717 0.310216     C
C     0.360317 0.310216 0.093717     C
C     0.360317 0.689816 0.906283     C
C     0.360317 0.906283 0.689816     C
C      0.37477  0.01331  0.37477     C
C      0.37477  0.37477  0.01331     C
C      0.37477  0.62537  0.98669     C
C      0.37477  0.98669  0.62537     C
O     0.385613  0.11299 0.551411     O
O     0.385613 0.448611  0.88701     O
O     0.385613 0.551411  0.11299     O
O     0.385613  0.88701 0.448611     O
O      0.38719 0.051411 0.114413     O
O      0.38719 0.948589 0.885587     O
C     0.397413  0.06741 0.602613     C
C     0.397413 0.397413  0.93259     C
C     0.397413 0.602613  0.06741     C
C     0.397413  0.93259 0.397413     C
C     0.406283 0.810216 0.139717     C
C     0.406283 0.860317 0.189816     C
C     0.406317 0.139717 0.810184     C
C     0.406317 0.189816 0.860283     C
H     0.407798 0.145535 0.0636517     H
H     0.407798 0.854465 0.9363483     H
N     0.414287 0.684511  0.96769     N
N     0.414313  0.03231 0.315511     N
N     0.414313 0.315511  0.03231     N
N     0.414313  0.96769 0.684489     N
C      0.43261 0.102613 0.102613     C
C      0.43261 0.897387 0.897387     C
H     0.436348 0.0922022 0.645535     H
H     0.436348 0.354465 0.9077978     H
H     0.436348 0.645535 0.0922022     H
H     0.436348 0.9077978 0.354465     H
N      0.46769 0.815511 0.085713     N
N      0.46769 0.914313 0.184511     N
N      0.46771 0.085713 0.815489     N
N      0.46771 0.184511 0.914287     N
C      0.48669  0.87477  0.12537     C
C      0.48671  0.12537  0.87463     C
Zn         0.5      0.0     0.75    Zn
Zn         0.5     0.25      0.0    Zn
Zn         0.5     0.75      0.0    Zn
Zn         0.5      1.0     0.25    Zn
C      0.51331  0.12537  0.12537     C
C      0.51331  0.87463  0.87463     C
N      0.53229 0.815511 0.914287     N
N      0.53231 0.085713 0.184511     N
N      0.53231 0.184511 0.085713     N
N      0.53231 0.914287 0.815489     N
H     0.563652 0.0922022 0.354465     H
H     0.563652 0.354465 0.0922022     H
H     0.563652 0.645535 0.9077978     H
H     0.563652 0.9077978 0.645535     H
C      0.56739 0.897413 0.102613     C
C      0.56741 0.102613 0.897387     C
N     0.585687 0.684511  0.03231     N
N     0.585713  0.03231 0.684489     N
N     0.585713 0.315511  0.96769     N
N     0.585713  0.96769 0.315511     N
H     0.592202 0.145535 0.9363483     H
H     0.592202 0.854465 0.0636517     H
C     0.593717 0.139717 0.189816     C
C     0.593717 0.189816 0.139717     C
C     0.593717 0.810184 0.860283     C
C     0.593717 0.860283 0.810184     C
C     0.602587 0.602613  0.93259     C
C     0.602613  0.06741 0.397413     C
C     0.602613 0.397413  0.06741     C
C     0.602613  0.93259 0.602587     C
O      0.61281 0.948611 0.114413     O
O      0.61299 0.051411 0.885587     O
O     0.614387 0.551411  0.88701     O
O     0.614413  0.11299 0.448611     O
O     0.614413 0.448611  0.11299     O
O     0.614413  0.88701 0.551389     O
C      0.62523  0.62537  0.01331     C
C      0.62537  0.01331  0.62523     C
C      0.62537  0.37477  0.98669     C
C      0.62537  0.98669  0.37477     C
C     0.639683 0.689816 0.093717     C
C     0.639717 0.093717 0.689784     C
C     0.639717 0.310216 0.906283     C
C     0.639717 0.906283 0.310216     C
N     0.684489 0.414313  0.96769     N
N     0.684489 0.585713  0.03231     N
N     0.684511  0.03231 0.585687     N
N     0.684511  0.96769 0.414287     N
C     0.689784 0.639717 0.093717     C
C     0.689816 0.093717 0.639683     C
C     0.689816 0.360317 0.906283     C
C     0.689816 0.906283 0.360317     C
Zn        0.75      0.0      0.5    Zn
Zn        0.75      0.5      1.0    Zn
C     0.810184 0.406317 0.139717     C
C     0.810184 0.593683 0.860317     C
C     0.810184 0.860283 0.593717     C
C     0.810216 0.139717 0.406283     C
N     0.815489  0.46771 0.085713     N
N     0.815489  0.53229 0.914313     N
N     0.815489 0.914287  0.53231     N
N     0.815511 0.085713  0.46769     N
H     0.854465 0.592202 0.0636517     H
H     0.854465 0.9363483 0.407798     H
C     0.860283 0.406317 0.189816     C
C     0.860283 0.593683 0.810216     C
C     0.860283 0.810184 0.593717     C
C     0.860317 0.189816 0.406283     C
C      0.87463  0.48671  0.12537     C
C      0.87463  0.51329  0.87477     C
C      0.87463  0.87463  0.51331     C
C      0.87477  0.12537  0.48669     C
O     0.885587  0.38701 0.948611     O
O     0.885613 0.051411  0.61281     O
O      0.88701 0.448611 0.385613     O
O      0.88701 0.551389 0.614413     O
C     0.897387  0.43259 0.897413     C
C     0.897387  0.56741 0.102613     C
C     0.897387 0.897387  0.43261     C
C     0.897413 0.102613  0.56739     C
C     0.906283 0.310216 0.639717     C
C     0.906283 0.360317 0.689816     C
C     0.906283 0.639717 0.310216     C
C     0.906283 0.689816 0.360317     C
H     0.9077978 0.354465 0.436348     H
H     0.9077978 0.645535 0.563652     H
N     0.914287 0.184511  0.46771     N
N     0.914287  0.46771 0.184511     N
N     0.914287  0.53229 0.815511     N
N     0.914287 0.815489  0.53231     N
C      0.93259 0.397413 0.397413     C
C      0.93259 0.602587 0.602613     C
H     0.936348 0.145535 0.592202     H
H     0.9363483 0.407798 0.854465     H
O     0.948589  0.61299 0.114413     O
O     0.948589 0.885587  0.38719     O
N      0.96769 0.315511 0.585713     N
N      0.96769 0.414287 0.684511     N
N      0.96769 0.585713 0.315511     N
N      0.96769 0.684489 0.414313     N
C      0.98669  0.37477  0.62537     C
C      0.98669  0.62537  0.37477     C
