data_I
_chemical_name_common  '/home/dharunkraja/Desktop/D/MOFSNN_D/CGCNN_MT/data/WS24/clean_cifs/Zn-DMOF-DM'
_cell_length_a 10.92882
_cell_length_b 10.92882
_cell_length_c  9.60841
_cell_angle_alpha 90.00000
_cell_angle_beta  90.00000
_cell_angle_gamma 90.00000
_space_group_name_H-M_alt      'P 1'


loop_
_space_group_symop_operation_xyz
  'x, y, z'

loop_
_atom_site_label
_atom_site_fract_x
_atom_site_fract_y
_atom_site_fract_z
_atom_site_type_symbol
C     0.0633418      0.5  0.12192     C
C     0.0633418      0.5  0.87812     C
H     0.06961943      0.5 0.34579388     H
H     0.112471      0.5 0.779515     H
C      0.12752      0.5      0.0     C
C     0.13339972      0.5 0.25857946     C
H     0.19106395 0.41883484 0.26524881     H
H     0.19106395 0.58116516 0.26524881     H
C      0.26482      0.5      0.0     C
O     0.3176716  0.48388 0.1154317     O
O     0.3176716  0.48388 0.8845717     O
H      0.32204 0.563039 0.383203     H
H     0.322044 0.563034 0.616947     H
H     0.322052 0.437111 0.383208     H
H     0.322056 0.437116 0.616942     H
C      0.41315  0.41315  0.42017     C
C      0.41315  0.41315  0.57997     C
C      0.41315  0.58695  0.42017     C
C      0.41315  0.58695  0.57997     C
H     0.41883484 0.19106395 0.26524881     H
H     0.41883484 0.80888973 0.73484877     H
H     0.437111 0.322052 0.383208     H
H     0.437116 0.322056 0.616942     H
H     0.437166 0.678032 0.383203     H
H      0.43717 0.678028 0.616947     H
O      0.48388 0.3176716 0.1154317     O
O      0.48388 0.3176716 0.8845717     O
O      0.48388 0.6823316 0.1154317     O
O      0.48388 0.6823316 0.8845717     O
C          0.5 0.0633418  0.12192     C
C          0.5 0.0633418  0.87812     C
H          0.5 0.06961943 0.34579388     H
H          0.5 0.112471 0.779515     H
C          0.5  0.12752      0.0     C
C          0.5 0.13339972 0.25857946     C
C          0.5  0.26482      0.0     C
Zn         0.5      0.5 0.150063    Zn
N          0.5      0.5  0.36594     N
N          0.5      0.5  0.63414     N
Zn         0.5      0.5 0.849943    Zn
C          0.5  0.73522      0.0     C
C          0.5 0.86655627 0.74149212     C
C          0.5  0.87252      0.0     C
H          0.5 0.887516 0.220514     H
H          0.5 0.93030619 0.65424896     H
C          0.5 0.9366618  0.12192     C
C          0.5 0.9366618  0.87812     C
H     0.58116516 0.19106395 0.26524881     H
H     0.58116516 0.80888973 0.73484877     H
C      0.62297      0.5  0.41947     C
C      0.62297      0.5  0.58067     C
H      0.67036  0.41864  0.61777     H
H      0.67036  0.58136  0.61777     H
H     0.670366  0.41864  0.38238     H
H     0.670366  0.58136  0.38238     H
O     0.6823316  0.48388 0.1154317     O
O     0.6823316  0.48388 0.8845717     O
C      0.73522      0.5      0.0     C
H     0.80888973 0.41883484 0.73484877     H
H     0.80888973 0.58116516 0.73484877     H
C     0.86655627      0.5 0.74149212     C
C      0.87252      0.5      0.0     C
H     0.887516      0.5 0.220514     H
H     0.93030619      0.5 0.65424896     H
C     0.9366618      0.5  0.12192     C
C     0.9366618      0.5  0.87812     C
