data_I
_chemical_name_common  '/home/dharunkraja/Desktop/D/MOFSNN_D/CGCNN_MT/data/WS24/clean_cifs/Zn-DMOF-A'
_cell_length_a 15.34801
_cell_length_b 15.34801
_cell_length_c 18.93830
_cell_angle_alpha 90.00000
_cell_angle_beta  90.00000
_cell_angle_gamma 90.00000
_space_group_name_H-M_alt      'P 1'


loop_
_space_group_symop_operation_xyz
  'x, y, z'

loop_
_atom_site_label
_atom_site_fract_x
_atom_site_fract_y
_atom_site_fract_z
_atom_site_type_symbol
N          0.0      0.0  0.06734     N
Zn         0.0      0.0 0.174323    Zn
Zn         0.0      0.0 0.325683    Zn
N          0.0      0.0  0.43274     N
N          0.0      0.0  0.56734     N
Zn         0.0      0.0 0.674323    Zn
Zn         0.0      0.0 0.825677    Zn
N          0.0      0.0  0.93266     N
H     0.0114566  0.37296 0.125194     H
H     0.0114566  0.37296 0.874806     H
H     0.0114566  0.62704 0.374806     H
H     0.0114566  0.62704 0.625194     H
H      0.01637 0.134368 0.440212     H
H      0.01637 0.134368 0.559788     H
H     0.0281057 0.133424 0.0599616     H
H     0.0281057 0.133424 0.9400384     H
H     0.0380024 0.232778 0.180385     H
H     0.0380024 0.232778 0.819615     H
H     0.0380024 0.767222 0.319615     H
H     0.0380024 0.767222 0.680385     H
C      0.07394  0.36034  0.15055     C
C      0.07394  0.36034  0.84955     C
C      0.07394  0.63974  0.34955     C
C      0.07394  0.63974  0.65055     C
O     0.0747816 0.1067816 0.3061413     O
O     0.0747816 0.1067816 0.6938613     O
O     0.0747816 0.8932184 0.1938613     O
O     0.0747816 0.8932184 0.8061413     O
C      0.08421 0.971987  0.04087     C
C      0.08421 0.971987  0.95913     C
C     0.087511 0.979385  0.45918     C
C     0.087511 0.979385  0.54098     C
C      0.08854  0.28264  0.18164     C
C      0.08854  0.28264  0.81844     C
C      0.08854  0.71744  0.31844     C
C      0.08854  0.71744  0.68164     C
H     0.0978057 0.9064226 0.0597881     H
H     0.0978057 0.9064226 0.9402119     H
O     0.1067816 0.0747816 0.1938613     O
O     0.1067816 0.0747816 0.8061413     O
O     0.1067816 0.9252184 0.3061413     O
O     0.1067816 0.9252184 0.6938613     O
H     0.106871 0.9153219 0.440038     H
H     0.106871 0.9153219 0.559962     H
C      0.11682  0.11682     0.25     C
C      0.11682  0.11682     0.75     C
C      0.11682  0.88322     0.25     C
C      0.11682  0.88322     0.75     C
H      0.12704 0.488543 0.125194     H
H      0.12704 0.488543 0.874806     H
H      0.12704 0.511457 0.374806     H
H      0.12704 0.511457 0.625194     H
H     0.133424 0.0281057 0.440038     H
H     0.133424 0.0281057 0.559962     H
H     0.134368  0.01637 0.0597881     H
H     0.134368  0.01637 0.9402119     H
C      0.13974  0.42614  0.15055     C
C      0.13974  0.42614  0.84955     C
C      0.13974  0.57394  0.34955     C
C      0.13974  0.57394  0.65055     C
C      0.16932  0.26482  0.21612     C
C      0.16932  0.26482  0.78392     C
C      0.16932  0.73522  0.28392     C
C      0.16932  0.73522  0.71612     C
C      0.18602  0.18602     0.25     C
C      0.18602  0.18602     0.75     C
C      0.18602  0.81402     0.25     C
C      0.18602  0.81402     0.75     C
C      0.21744  0.41154  0.18164     C
C      0.21744  0.41154  0.81844     C
C      0.21744  0.58854  0.31844     C
C      0.21744  0.58854  0.68164     C
H     0.232778 0.0380024 0.319615     H
H     0.232778 0.0380024 0.680385     H
H     0.232778 0.961998 0.180385     H
H     0.232778 0.961998 0.819615     H
C      0.23522  0.33072  0.21612     C
C      0.23522  0.33072  0.78392     C
C      0.23522  0.66932  0.28392     C
C      0.23522  0.66932  0.71612     C
C      0.26482  0.16932  0.28392     C
C      0.26482  0.16932  0.71612     C
C      0.26482  0.83072  0.21612     C
C      0.26482  0.83072  0.78392     C
H     0.267222 0.461998 0.180385     H
H     0.267222 0.461998 0.819615     H
H     0.267222 0.538002 0.319615     H
H     0.267222 0.538002 0.680385     H
C      0.28264  0.08854  0.31844     C
C      0.28264  0.08854  0.68164     C
C      0.28264  0.91154  0.18164     C
C      0.28264  0.91154  0.81844     C
C      0.31402  0.31402     0.25     C
C      0.31402  0.31402     0.75     C
C      0.31402  0.68602     0.25     C
C      0.31402  0.68602     0.75     C
C      0.33072  0.23522  0.28392     C
C      0.33072  0.23522  0.71612     C
C      0.33072  0.76482  0.21612     C
C      0.33072  0.76482  0.78392     C
C      0.36034  0.07394  0.34955     C
C      0.36034  0.07394  0.65055     C
C      0.36034  0.92614  0.15055     C
C      0.36034  0.92614  0.84955     C
H     0.368488 0.459458 0.439501     H
H     0.368488 0.459458 0.560499     H
H      0.37296 0.0114566 0.374806     H
H      0.37296 0.0114566 0.625194     H
H      0.37296 0.988543 0.125194     H
H      0.37296 0.988543 0.874806     H
H     0.373391 0.446062   0.0605     H
H     0.373391 0.446062 0.939501     H
C      0.38322  0.38322     0.25     C
C      0.38322  0.38322     0.75     C
C      0.38322  0.61682     0.25     C
C      0.38322  0.61682     0.75     C
O     0.3932216 0.4252216 0.3061413     O
O     0.3932216 0.4252216 0.6938613     O
O     0.3932216 0.5747816 0.1938613     O
O     0.3932216 0.5747816 0.8061413     O
H     0.406423 0.597806  0.05979     H
H     0.406423 0.597806 0.940212     H
C      0.41154  0.21744  0.31844     C
C      0.41154  0.21744  0.68164     C
C      0.41154  0.78264  0.18164     C
C      0.41154  0.78264  0.81844     C
H     0.415322 0.606871 0.440038     H
H     0.415322 0.606871 0.559962     H
O     0.4252216 0.3932216 0.1938613     O
O     0.4252216 0.3932216 0.8061413     O
O     0.4252216 0.6067816 0.3061413     O
O     0.4252216 0.6067816 0.6938613     O
C      0.42614  0.13974  0.34955     C
C      0.42614  0.13974  0.65055     C
C      0.42614  0.86034  0.15055     C
C      0.42614  0.86034  0.84955     C
C     0.432113 0.438813  0.45877     C
C     0.432113 0.438813  0.54137     C
C     0.438813 0.432113  0.04137     C
C     0.438813 0.432113  0.95877     C
H     0.446062 0.373391 0.439501     H
H     0.446062 0.373391 0.560499     H
H     0.459458 0.368488   0.0605     H
H     0.459458 0.368488 0.939501     H
H     0.461998 0.267222 0.319615     H
H     0.461998 0.267222 0.680385     H
H     0.461998 0.732778 0.180385     H
H     0.461998 0.732778 0.819615     H
C     0.472013  0.58421  0.04087     C
C     0.472013  0.58421  0.95927     C
C     0.479415 0.587511  0.45918     C
C     0.479415 0.587511  0.54098     C
H     0.488543  0.12704 0.374806     H
H     0.488543  0.12704 0.625194     H
H     0.488543  0.87296 0.125194     H
H     0.488543  0.87296 0.874806     H
N          0.5      0.5  0.06734     N
Zn         0.5      0.5 0.174323    Zn
Zn         0.5      0.5 0.325683    Zn
N          0.5      0.5  0.43274     N
N          0.5      0.5  0.56734     N
Zn         0.5      0.5 0.674323    Zn
Zn         0.5      0.5 0.825683    Zn
N          0.5      0.5  0.93274     N
H     0.511457  0.12704 0.125194     H
H     0.511457  0.12704 0.874806     H
H     0.511457  0.87296 0.374806     H
H     0.511457  0.87296 0.625194     H
H      0.51637 0.634368  0.05979     H
H      0.51637 0.634368 0.940212     H
H     0.528106 0.633424 0.440038     H
H     0.528106 0.633424 0.559962     H
H     0.538002 0.267222 0.180385     H
H     0.538002 0.267222 0.819615     H
H     0.538002 0.732778 0.319615     H
H     0.538002 0.732778 0.680385     H
C      0.57394  0.13974  0.15055     C
C      0.57394  0.13974  0.84955     C
C      0.57394  0.86034  0.34955     C
C      0.57394  0.86034  0.65055     C
O     0.5747816 0.3932216 0.3061413     O
O     0.5747816 0.3932216 0.6938613     O
O     0.5747816 0.6067816 0.1938613     O
O     0.5747816 0.6067816 0.8061413     O
C      0.58421 0.472013  0.45927     C
C      0.58421 0.472013  0.54087     C
C     0.587511 0.479415  0.04098     C
C     0.587511 0.479415  0.95918     C
C      0.58854  0.21744  0.18164     C
C      0.58854  0.21744  0.81844     C
C      0.58854  0.78264  0.31844     C
C      0.58854  0.78264  0.68164     C
H     0.597806 0.406423 0.440212     H
H     0.597806 0.406423 0.559788     H
O     0.6067816 0.4252216 0.1938613     O
O     0.6067816 0.4252216 0.8061413     O
O     0.6067816 0.5747816 0.3061413     O
O     0.6067816 0.5747816 0.6938613     O
H     0.606871 0.415322  0.05996     H
H     0.606871 0.415322 0.940038     H
C      0.61682  0.38322     0.25     C
C      0.61682  0.38322     0.75     C
C      0.61682  0.61682     0.25     C
C      0.61682  0.61682     0.75     C
H      0.62704 0.0114566 0.125194     H
H      0.62704 0.0114566 0.874806     H
H      0.62704 0.988543 0.374806     H
H      0.62704 0.988543 0.625194     H
H     0.633424 0.528106  0.05996     H
H     0.633424 0.528106 0.940038     H
H     0.634368  0.51637 0.440212     H
H     0.634368  0.51637 0.559788     H
C      0.63974  0.07394  0.15055     C
C      0.63974  0.07394  0.84955     C
C      0.63974  0.92614  0.34955     C
C      0.63974  0.92614  0.65055     C
C      0.66932  0.23522  0.21612     C
C      0.66932  0.23522  0.78392     C
C      0.66932  0.76482  0.28392     C
C      0.66932  0.76482  0.71612     C
C      0.68602  0.31402     0.25     C
C      0.68602  0.31402     0.75     C
C      0.68602  0.68602     0.25     C
C      0.68602  0.68602     0.75     C
C      0.71744  0.08854  0.18164     C
C      0.71744  0.08854  0.81844     C
C      0.71744  0.91154  0.31844     C
C      0.71744  0.91154  0.68164     C
H     0.732778 0.461998 0.319615     H
H     0.732778 0.461998 0.680385     H
H     0.732778 0.538002 0.180385     H
H     0.732778 0.538002 0.819615     H
C      0.73522  0.16932  0.21612     C
C      0.73522  0.16932  0.78392     C
C      0.73522  0.83072  0.28392     C
C      0.73522  0.83072  0.71612     C
C      0.76482  0.33072  0.28392     C
C      0.76482  0.33072  0.71612     C
C      0.76482  0.66932  0.21612     C
C      0.76482  0.66932  0.78392     C
H     0.767222 0.0380024 0.180385     H
H     0.767222 0.0380024 0.819615     H
H     0.767222 0.961998 0.319615     H
H     0.767222 0.961998 0.680385     H
C      0.78264  0.41154  0.31844     C
C      0.78264  0.41154  0.68164     C
C      0.78264  0.58854  0.18164     C
C      0.78264  0.58854  0.81844     C
C      0.81402  0.18602     0.25     C
C      0.81402  0.18602     0.75     C
C      0.81402  0.81402     0.25     C
C      0.81402  0.81402     0.75     C
C      0.83072  0.26482  0.28392     C
C      0.83072  0.26482  0.71612     C
C      0.83072  0.73522  0.21612     C
C      0.83072  0.73522  0.78392     C
C      0.86034  0.42614  0.34955     C
C      0.86034  0.42614  0.65055     C
C      0.86034  0.57394  0.15055     C
C      0.86034  0.57394  0.84955     C
H     0.868488 0.9594579 0.060499     H
H     0.868488 0.9594579 0.939501     H
H      0.87296 0.488543 0.374806     H
H      0.87296 0.488543 0.625194     H
H      0.87296 0.511457 0.125194     H
H      0.87296 0.511457 0.874806     H
H     0.873391 0.946062 0.439501     H
H     0.873391 0.946062 0.560499     H
C      0.88322  0.11682     0.25     C
C      0.88322  0.11682     0.75     C
C      0.88322  0.88322     0.25     C
C      0.88322  0.88322     0.75     C
O     0.8932184 0.0747816 0.3061413     O
O     0.8932184 0.0747816 0.6938613     O
O     0.8932184 0.9252184 0.1938613     O
O     0.8932184 0.9252184 0.8061413     O
H     0.9064226 0.0978057 0.440212     H
H     0.9064226 0.0978057 0.559788     H
C      0.91154  0.28264  0.31844     C
C      0.91154  0.28264  0.68164     C
C      0.91154  0.71744  0.18164     C
C      0.91154  0.71744  0.81844     C
H     0.9153219 0.106871 0.0599616     H
H     0.9153219 0.106871 0.9400384     H
O     0.9252184 0.1067816 0.1938613     O
O     0.9252184 0.1067816 0.8061413     O
O     0.9252184 0.8932184 0.3061413     O
O     0.9252184 0.8932184 0.6938613     O
C      0.92614  0.36034  0.34955     C
C      0.92614  0.36034  0.65055     C
C      0.92614  0.63974  0.15055     C
C      0.92614  0.63974  0.84955     C
C     0.932087 0.938787  0.04137     C
C     0.932087 0.938787  0.95863     C
C     0.938787 0.932087  0.45877     C
C     0.938787 0.932087  0.54137     C
H     0.946062 0.873391 0.060499     H
H     0.946062 0.873391 0.939501     H
H     0.9594579 0.868488 0.439501     H
H     0.9594579 0.868488 0.560499     H
H     0.961998 0.232778 0.319615     H
H     0.961998 0.232778 0.680385     H
H     0.961998 0.767222 0.180385     H
H     0.961998 0.767222 0.819615     H
C     0.971987  0.08421  0.45927     C
C     0.971987  0.08421  0.54087     C
C     0.979385 0.087511  0.04098     C
C     0.979385 0.087511  0.95902     C
H     0.988543  0.37296 0.374806     H
H     0.988543  0.37296 0.625194     H
H     0.988543  0.62704 0.125194     H
H     0.988543  0.62704 0.874806     H
