data_I
_chemical_name_common  '/home/dharunkraja/Desktop/D/MOFSNN_D/CGCNN_MT/data/WS24/clean_cifs/Zn-DMOF_NO2_2'
_cell_length_a 10.92882
_cell_length_b 10.92882
_cell_length_c  9.60841
_cell_angle_alpha 90.00000
_cell_angle_beta  90.00000
_cell_angle_gamma 90.00000
_space_group_name_H-M_alt      'P 1'


loop_
_space_group_symop_operation_xyz
  'x, y, z'

loop_
_atom_site_label
_atom_site_fract_x
_atom_site_fract_y
_atom_site_fract_z
_atom_site_type_symbol
C     0.0633418      0.5  0.12192     C
C     0.0633418      0.5  0.87812     C
H     0.112477      0.5 0.220521     H
C      0.12752      0.5      0.0     C
N     0.13203382      0.5 0.74416892     N
O     0.16299707 0.40353585 0.68378984     O
O     0.16299707 0.59646415 0.68378984     O
C      0.26482      0.5      0.0     C
O     0.3176716  0.48388 0.1154317     O
O     0.3176716  0.48388 0.8845717     O
H      0.32204 0.563039 0.383203     H
H     0.322044 0.563034 0.616947     H
H     0.322052 0.437111 0.383208     H
H     0.322056 0.437116 0.616942     H
O     0.40353585 0.16297267 0.31626634     O
O     0.40353585 0.83696323 0.68381858     O
C      0.41315  0.41315  0.42017     C
C      0.41315  0.41315  0.57997     C
C      0.41315  0.58695  0.42017     C
C      0.41315  0.58695  0.57997     C
H     0.437111 0.322052 0.383208     H
H     0.437116 0.322056 0.616942     H
H     0.437166 0.678032 0.383203     H
H      0.43717 0.678028 0.616947     H
O      0.48388 0.3176716 0.1154317     O
O      0.48388 0.3176716 0.8845717     O
O      0.48388 0.6823316 0.1154317     O
O      0.48388 0.6823316 0.8845717     O
C          0.5 0.0633418  0.12192     C
C          0.5 0.0633418  0.87812     C
H          0.5 0.112471 0.779515     H
C          0.5  0.12752      0.0     C
N          0.5 0.132017 0.25588223     N
C          0.5  0.26482      0.0     C
Zn         0.5      0.5 0.150063    Zn
N          0.5      0.5  0.36594     N
N          0.5      0.5  0.63414     N
Zn         0.5      0.5 0.849943    Zn
C          0.5  0.73522      0.0     C
N          0.5 0.86793994 0.74418873     N
C          0.5  0.87252      0.0     C
H          0.5 0.887516 0.220514     H
C          0.5 0.9366618  0.12192     C
C          0.5 0.9366618  0.87812     C
O     0.59646415 0.16297267 0.31626634     O
O     0.59646415 0.83696323 0.68381858     O
C      0.62297      0.5  0.41947     C
C      0.62297      0.5  0.58067     C
H      0.67036  0.41864  0.61777     H
H      0.67036  0.58136  0.61777     H
H     0.670366  0.41864  0.38238     H
H     0.670366  0.58136  0.38238     H
O     0.6823316  0.48388 0.1154317     O
O     0.6823316  0.48388 0.8845717     O
C      0.73522      0.5      0.0     C
O     0.83698764 0.40353585 0.31623762     O
O     0.83698764 0.59646415 0.31623762     O
N     0.86795676      0.5 0.25586244     N
C      0.87252      0.5      0.0     C
H     0.887522      0.5 0.779522     H
C     0.9366618      0.5  0.12192     C
C     0.9366618      0.5  0.87812     C
