# generated using pymatgen
data_ErH9C16O7
_symmetry_space_group_name_H-M   'P 1'
_cell_length_a   18.82260000
_cell_length_b   18.82260000
_cell_length_c   18.82260000
_cell_angle_alpha   62.89810000
_cell_angle_beta   62.89810000
_cell_angle_gamma   62.89810000
_symmetry_Int_Tables_number   1
_chemical_formula_structural   ErH9C16O7
_chemical_formula_sum   'Er6 H54 C96 O42'
_cell_volume   5019.08572148
_cell_formula_units_Z   6
loop_
 _symmetry_equiv_pos_site_id
 _symmetry_equiv_pos_as_xyz
  1  'x, y, z'
loop_
 _atom_site_type_symbol
 _atom_site_label
 _atom_site_symmetry_multiplicity
 _atom_site_fract_x
 _atom_site_fract_y
 _atom_site_fract_z
 _atom_site_occupancy
  Er  Er0  1  0.55932000  0.99556000  0.56628000  1
  Er  Er1  1  0.99556000  0.56628000  0.55932000  1
  Er  Er2  1  0.56628000  0.55932000  0.99556000  1
  Er  Er3  1  0.43372000  0.44068000  0.00444000  1
  Er  Er4  1  0.00444000  0.43372000  0.44068000  1
  Er  Er5  1  0.44068000  0.00444000  0.43372000  1
  H  H6  1  0.22610000  0.95470000  0.40480000  1
  H  H7  1  0.16580000  0.87930000  0.39410000  1
  H  H8  1  0.61010000  0.84480000  0.36270000  1
  H  H9  1  0.60590000  0.83420000  0.12070000  1
  H  H10  1  0.60360000  0.83230000  0.24970000  1
  H  H11  1  0.34470000  0.80570000  0.63420000  1
  H  H12  1  0.48190000  0.77500000  0.76410000  1
  H  H13  1  0.59520000  0.77390000  0.04530000  1
  H  H14  1  0.56010000  0.77180000  0.33300000  1
  H  H15  1  0.77500000  0.76410000  0.48190000  1
  H  H16  1  0.42120000  0.75300000  0.43900000  1
  H  H17  1  0.16770000  0.75030000  0.39640000  1
  H  H18  1  0.35830000  0.67560000  0.43380000  1
  H  H19  1  0.22820000  0.66700000  0.43990000  1
  H  H20  1  0.36580000  0.65530000  0.19430000  1
  H  H21  1  0.56620000  0.64170000  0.32440000  1
  H  H22  1  0.15520000  0.63730000  0.38990000  1
  H  H23  1  0.80570000  0.63420000  0.34470000  1
  H  H24  1  0.36270000  0.61010000  0.84480000  1
  H  H25  1  0.12070000  0.60590000  0.83420000  1
  H  H26  1  0.24970000  0.60360000  0.83230000  1
  H  H27  1  0.04530000  0.59520000  0.77390000  1
  H  H28  1  0.56100000  0.57880000  0.24700000  1
  H  H29  1  0.32440000  0.56620000  0.64170000  1
  H  H30  1  0.24700000  0.56100000  0.57880000  1
  H  H31  1  0.33300000  0.56010000  0.77180000  1
  H  H32  1  0.23590000  0.51810000  0.22500000  1
  H  H33  1  0.76410000  0.48190000  0.77500000  1
  H  H34  1  0.66700000  0.43990000  0.22820000  1
  H  H35  1  0.75300000  0.43900000  0.42120000  1
  H  H36  1  0.67560000  0.43380000  0.35830000  1
  H  H37  1  0.43900000  0.42120000  0.75300000  1
  H  H38  1  0.95470000  0.40480000  0.22610000  1
  H  H39  1  0.75030000  0.39640000  0.16770000  1
  H  H40  1  0.87930000  0.39410000  0.16580000  1
  H  H41  1  0.63730000  0.38990000  0.15520000  1
  H  H42  1  0.19430000  0.36580000  0.65530000  1
  H  H43  1  0.84480000  0.36270000  0.61010000  1
  H  H44  1  0.43380000  0.35830000  0.67560000  1
  H  H45  1  0.63420000  0.34470000  0.80570000  1
  H  H46  1  0.77180000  0.33300000  0.56010000  1
  H  H47  1  0.64170000  0.32440000  0.56620000  1
  H  H48  1  0.83230000  0.24970000  0.60360000  1
  H  H49  1  0.57880000  0.24700000  0.56100000  1
  H  H50  1  0.22500000  0.23590000  0.51810000  1
  H  H51  1  0.43990000  0.22820000  0.66700000  1
  H  H52  1  0.40480000  0.22610000  0.95470000  1
  H  H53  1  0.51810000  0.22500000  0.23590000  1
  H  H54  1  0.65530000  0.19430000  0.36580000  1
  H  H55  1  0.39640000  0.16770000  0.75030000  1
  H  H56  1  0.39410000  0.16580000  0.87930000  1
  H  H57  1  0.38990000  0.15520000  0.63730000  1
  H  H58  1  0.83420000  0.12070000  0.60590000  1
  H  H59  1  0.77390000  0.04530000  0.59520000  1
  C  C60  1  0.36881000  0.91161000  0.42821000  1
  C  C61  1  0.25440000  0.89810000  0.40940000  1
  C  C62  1  0.63649000  0.88259000  0.46499000  1
  C  C63  1  0.43904000  0.88044000  0.62484000  1
  C  C64  1  0.32862000  0.86272000  0.42282000  1
  C  C65  1  0.21830000  0.85320000  0.40220000  1
  C  C66  1  0.68436000  0.81316000  0.42856000  1
  C  C67  1  0.65821000  0.80561000  0.37661000  1
  C  C68  1  0.41458000  0.80348000  0.68978000  1
  C  C69  1  0.59780000  0.78170000  0.14680000  1
  C  C70  1  0.36910000  0.77900000  0.43030000  1
  C  C71  1  0.36496000  0.77616000  0.67996000  1
  C  C72  1  0.60470000  0.77430000  0.27960000  1
  C  C73  1  0.25940000  0.77070000  0.40670000  1
  C  C74  1  0.75698000  0.75728000  0.44758000  1
  C  C75  1  0.44758000  0.75698000  0.75728000  1
  C  C76  1  0.59060000  0.74560000  0.10190000  1
  C  C77  1  0.59330000  0.74060000  0.22930000  1
  C  C78  1  0.70459000  0.73789000  0.34449000  1
  C  C79  1  0.33230000  0.73310000  0.42480000  1
  C  C80  1  0.22570000  0.72040000  0.39530000  1
  C  C81  1  0.34449000  0.70459000  0.73789000  1
  C  C82  1  0.80348000  0.68978000  0.41458000  1
  C  C83  1  0.42856000  0.68436000  0.81316000  1
  C  C84  1  0.77616000  0.67996000  0.36496000  1
  C  C85  1  0.57718000  0.67138000  0.13728000  1
  C  C86  1  0.57520000  0.66770000  0.26690000  1
  C  C87  1  0.37661000  0.65821000  0.80561000  1
  C  C88  1  0.26211000  0.65551000  0.29541000  1
  C  C89  1  0.46499000  0.63649000  0.88259000  1
  C  C90  1  0.32004000  0.63504000  0.22384000  1
  C  C91  1  0.57179000  0.63119000  0.08839000  1
  C  C92  1  0.56970000  0.63090000  0.22100000  1
  C  C93  1  0.88044000  0.62484000  0.43904000  1
  C  C94  1  0.19439000  0.62339000  0.34179000  1
  C  C95  1  0.27960000  0.60470000  0.77430000  1
  C  C96  1  0.14680000  0.59780000  0.78170000  1
  C  C97  1  0.22930000  0.59330000  0.74060000  1
  C  C98  1  0.10190000  0.59060000  0.74560000  1
  C  C99  1  0.31022000  0.58542000  0.19652000  1
  C  C100  1  0.13728000  0.57718000  0.67138000  1
  C  C101  1  0.26690000  0.57520000  0.66770000  1
  C  C102  1  0.08839000  0.57179000  0.63119000  1
  C  C103  1  0.18684000  0.57144000  0.31564000  1
  C  C104  1  0.22100000  0.56970000  0.63090000  1
  C  C105  1  0.37516000  0.56096000  0.11956000  1
  C  C106  1  0.24272000  0.55242000  0.24302000  1
  C  C107  1  0.11741000  0.53501000  0.36351000  1
  C  C108  1  0.88259000  0.46499000  0.63649000  1
  C  C109  1  0.75728000  0.44758000  0.75698000  1
  C  C110  1  0.62484000  0.43904000  0.88044000  1
  C  C111  1  0.77900000  0.43030000  0.36910000  1
  C  C112  1  0.81316000  0.42856000  0.68436000  1
  C  C113  1  0.91161000  0.42821000  0.36881000  1
  C  C114  1  0.73310000  0.42480000  0.33230000  1
  C  C115  1  0.86272000  0.42282000  0.32862000  1
  C  C116  1  0.68978000  0.41458000  0.80348000  1
  C  C117  1  0.89810000  0.40940000  0.25440000  1
  C  C118  1  0.77070000  0.40670000  0.25940000  1
  C  C119  1  0.85320000  0.40220000  0.21830000  1
  C  C120  1  0.72040000  0.39530000  0.22570000  1
  C  C121  1  0.80561000  0.37661000  0.65821000  1
  C  C122  1  0.11956000  0.37516000  0.56096000  1
  C  C123  1  0.43030000  0.36910000  0.77900000  1
  C  C124  1  0.42821000  0.36881000  0.91161000  1
  C  C125  1  0.67996000  0.36496000  0.77616000  1
  C  C126  1  0.53501000  0.36351000  0.11741000  1
  C  C127  1  0.73789000  0.34449000  0.70459000  1
  C  C128  1  0.62339000  0.34179000  0.19439000  1
  C  C129  1  0.42480000  0.33230000  0.73310000  1
  C  C130  1  0.42282000  0.32862000  0.86272000  1
  C  C131  1  0.22384000  0.32004000  0.63504000  1
  C  C132  1  0.57144000  0.31564000  0.18684000  1
  C  C133  1  0.19652000  0.31022000  0.58542000  1
  C  C134  1  0.65551000  0.29541000  0.26211000  1
  C  C135  1  0.77430000  0.27960000  0.60470000  1
  C  C136  1  0.66770000  0.26690000  0.57520000  1
  C  C137  1  0.29541000  0.26211000  0.65551000  1
  C  C138  1  0.40670000  0.25940000  0.77070000  1
  C  C139  1  0.40940000  0.25440000  0.89810000  1
  C  C140  1  0.55242000  0.24302000  0.24272000  1
  C  C141  1  0.24302000  0.24272000  0.55242000  1
  C  C142  1  0.74060000  0.22930000  0.59330000  1
  C  C143  1  0.39530000  0.22570000  0.72040000  1
  C  C144  1  0.63504000  0.22384000  0.32004000  1
  C  C145  1  0.63090000  0.22100000  0.56970000  1
  C  C146  1  0.40220000  0.21830000  0.85320000  1
  C  C147  1  0.58542000  0.19652000  0.31022000  1
  C  C148  1  0.34179000  0.19439000  0.62339000  1
  C  C149  1  0.31564000  0.18684000  0.57144000  1
  C  C150  1  0.78170000  0.14680000  0.59780000  1
  C  C151  1  0.67138000  0.13728000  0.57718000  1
  C  C152  1  0.56096000  0.11956000  0.37516000  1
  C  C153  1  0.36351000  0.11741000  0.53501000  1
  C  C154  1  0.74560000  0.10190000  0.59060000  1
  C  C155  1  0.63119000  0.08839000  0.57179000  1
  O  O156  1  0.32502000  0.98262000  0.43792000  1
  O  O157  1  0.56678000  0.92998000  0.45278000  1
  O  O158  1  0.40479000  0.92129000  0.56979000  1
  O  O159  1  0.49398000  0.89528000  0.63168000  1
  O  O160  1  0.66361000  0.89291000  0.50801000  1
  O  O161  1  0.44468000  0.88278000  0.42128000  1
  O  O162  1  0.68365000  0.72395000  0.29285000  1
  O  O163  1  0.27605000  0.70715000  0.31635000  1
  O  O164  1  0.29285000  0.68365000  0.72395000  1
  O  O165  1  0.56208000  0.67498000  0.01738000  1
  O  O166  1  0.50801000  0.66361000  0.89291000  1
  O  O167  1  0.89528000  0.63168000  0.49398000  1
  O  O168  1  0.43021000  0.59521000  0.07871000  1
  O  O169  1  0.11722000  0.57872000  0.55532000  1
  O  O170  1  0.92129000  0.56979000  0.40479000  1
  O  O171  1  0.45278000  0.56678000  0.92998000  1
  O  O172  1  0.01738000  0.56208000  0.67498000  1
  O  O173  1  0.57872000  0.55532000  0.11722000  1
  O  O174  1  0.07002000  0.54722000  0.43322000  1
  O  O175  1  0.89291000  0.50801000  0.66361000  1
  O  O176  1  0.36832000  0.50602000  0.10472000  1
  O  O177  1  0.63168000  0.49398000  0.89528000  1
  O  O178  1  0.10709000  0.49199000  0.33639000  1
  O  O179  1  0.92998000  0.45278000  0.56678000  1
  O  O180  1  0.42128000  0.44468000  0.88278000  1
  O  O181  1  0.98262000  0.43792000  0.32502000  1
  O  O182  1  0.54722000  0.43322000  0.07002000  1
  O  O183  1  0.07871000  0.43021000  0.59521000  1
  O  O184  1  0.88278000  0.42128000  0.44468000  1
  O  O185  1  0.56979000  0.40479000  0.92129000  1
  O  O186  1  0.10472000  0.36832000  0.50602000  1
  O  O187  1  0.49199000  0.33639000  0.10709000  1
  O  O188  1  0.43792000  0.32502000  0.98262000  1
  O  O189  1  0.70715000  0.31635000  0.27605000  1
  O  O190  1  0.72395000  0.29285000  0.68365000  1
  O  O191  1  0.31635000  0.27605000  0.70715000  1
  O  O192  1  0.55532000  0.11722000  0.57872000  1
  O  O193  1  0.33639000  0.10709000  0.49199000  1
  O  O194  1  0.50602000  0.10472000  0.36832000  1
  O  O195  1  0.59521000  0.07871000  0.43021000  1
  O  O196  1  0.43322000  0.07002000  0.54722000  1
  O  O197  1  0.67498000  0.01738000  0.56208000  1
