# generated using pymatgen
data_TbH2C12(NO2)3
_symmetry_space_group_name_H-M   'P 1'
_cell_length_a   10.53900000
_cell_length_b   11.21800000
_cell_length_c   12.84200000
_cell_angle_alpha   101.47200000
_cell_angle_beta   110.50000000
_cell_angle_gamma   99.25700000
_symmetry_Int_Tables_number   1
_chemical_formula_structural   TbH2C12(NO2)3
_chemical_formula_sum   'Tb2 H4 C24 N6 O12'
_cell_volume   1349.04634049
_cell_formula_units_Z   2
loop_
 _symmetry_equiv_pos_site_id
 _symmetry_equiv_pos_as_xyz
  1  'x, y, z'
loop_
 _atom_site_type_symbol
 _atom_site_label
 _atom_site_symmetry_multiplicity
 _atom_site_fract_x
 _atom_site_fract_y
 _atom_site_fract_z
 _atom_site_occupancy
  Tb  Tb0  1  0.39379000  0.95009000  0.82439000  1
  Tb  Tb1  1  0.60621000  0.04991000  0.17561000  1
  H  H2  1  0.08870000  0.92720000  0.86540000  1
  H  H3  1  0.49560000  0.63530000  0.16030000  1
  H  H4  1  0.50440000  0.36470000  0.83970000  1
  H  H5  1  0.91130000  0.07280000  0.13460000  1
  C  C6  1  0.03890000  0.42120000  0.42390000  1
  C  C7  1  0.05310000  0.95660000  0.91960000  1
  C  C8  1  0.09250000  0.05850000  0.11610000  1
  C  C9  1  0.09760000  0.60980000  0.58010000  1
  C  C10  1  0.13510000  0.53080000  0.50370000  1
  C  C11  1  0.14440000  0.01420000  0.03340000  1
  C  C12  1  0.19970000  0.72950000  0.66450000  1
  C  C13  1  0.29810000  0.02590000  0.06640000  1
  C  C14  1  0.47030000  0.75450000  0.99920000  1
  C  C15  1  0.48230000  0.62170000  0.99830000  1
  C  C16  1  0.48680000  0.54000000  0.90000000  1
  C  C17  1  0.49680000  0.58100000  0.09580000  1
  C  C18  1  0.50320000  0.41900000  0.90420000  1
  C  C19  1  0.51320000  0.46000000  0.10000000  1
  C  C20  1  0.51770000  0.37830000  0.00170000  1
  C  C21  1  0.52970000  0.24550000  0.00080000  1
  C  C22  1  0.70190000  0.97410000  0.93360000  1
  C  C23  1  0.80030000  0.27050000  0.33550000  1
  C  C24  1  0.85560000  0.98580000  0.96660000  1
  C  C25  1  0.86490000  0.46920000  0.49630000  1
  C  C26  1  0.90240000  0.39020000  0.41990000  1
  C  C27  1  0.90750000  0.94150000  0.88390000  1
  C  C28  1  0.94690000  0.04340000  0.08040000  1
  C  C29  1  0.96110000  0.57880000  0.57610000  1
  N  N30  1  0.09700000  0.34200000  0.36200000  1
  N  N31  1  0.17230000  0.11490000  0.22710000  1
  N  N32  1  0.27600000  0.53200000  0.51580000  1
  N  N33  1  0.72400000  0.46800000  0.48420000  1
  N  N34  1  0.82770000  0.88510000  0.77290000  1
  N  N35  1  0.90300000  0.65800000  0.63800000  1
  O  O36  1  0.16800000  0.79330000  0.73630000  1
  O  O37  1  0.31750000  0.76310000  0.65830000  1
  O  O38  1  0.34400000  0.99690000  0.98820000  1
  O  O39  1  0.38030000  0.06240000  0.17240000  1
  O  O40  1  0.43120000  0.77970000  0.90300000  1
  O  O41  1  0.49960000  0.83080000  0.09630000  1
  O  O42  1  0.50040000  0.16920000  0.90370000  1
  O  O43  1  0.56880000  0.22030000  0.09700000  1
  O  O44  1  0.61970000  0.93760000  0.82760000  1
  O  O45  1  0.65600000  0.00310000  0.01180000  1
  O  O46  1  0.68250000  0.23690000  0.34170000  1
  O  O47  1  0.83200000  0.20670000  0.26370000  1
