# generated using pymatgen
data_CdH12C14(NO)4
_symmetry_space_group_name_H-M   'P 1'
_cell_length_a   11.59850000
_cell_length_b   13.64790000
_cell_length_c   14.24840000
_cell_angle_alpha   102.16700000
_cell_angle_beta   90.00000000
_cell_angle_gamma   115.14600000
_symmetry_Int_Tables_number   1
_chemical_formula_structural   CdH12C14(NO)4
_chemical_formula_sum   'Cd4 H48 C56 N16 O16'
_cell_volume   1985.58916303
_cell_formula_units_Z   4
loop_
 _symmetry_equiv_pos_site_id
 _symmetry_equiv_pos_as_xyz
  1  'x, y, z'
loop_
 _atom_site_type_symbol
 _atom_site_label
 _atom_site_symmetry_multiplicity
 _atom_site_fract_x
 _atom_site_fract_y
 _atom_site_fract_z
 _atom_site_occupancy
  Cd  Cd0  1  0.00110000  0.44596000  0.86425000  1
  Cd  Cd1  1  0.44486000  0.44596000  0.36425000  1
  Cd  Cd2  1  0.55514000  0.55404000  0.63575000  1
  Cd  Cd3  1  0.99890000  0.55404000  0.13575000  1
  H  H4  1  0.01660000  0.21040000  0.58600000  1
  H  H5  1  0.07920000  0.80940000  0.13770000  1
  H  H6  1  0.08810000  0.23960000  0.13490000  1
  H  H7  1  0.09900000  0.69780000  0.85110000  1
  H  H8  1  0.10960000  0.37620000  0.53000000  1
  H  H9  1  0.12920000  0.28780000  0.98440000  1
  H  H10  1  0.15150000  0.23960000  0.63490000  1
  H  H11  1  0.15860000  0.28780000  0.48440000  1
  H  H12  1  0.19380000  0.21040000  0.08600000  1
  H  H13  1  0.21060000  0.70520000  0.37980000  1
  H  H14  1  0.23470000  0.54520000  0.37410000  1
  H  H15  1  0.24860000  0.97620000  0.13280000  1
  H  H16  1  0.26660000  0.37620000  0.03000000  1
  H  H17  1  0.26980000  0.19060000  0.36230000  1
  H  H18  1  0.27240000  0.02380000  0.36720000  1
  H  H19  1  0.27670000  0.86340000  0.85890000  1
  H  H20  1  0.30440000  0.66160000  0.12180000  1
  H  H21  1  0.31050000  0.54520000  0.87410000  1
  H  H22  1  0.34540000  0.82520000  0.61790000  1
  H  H23  1  0.35720000  0.66160000  0.62180000  1
  H  H24  1  0.40120000  0.30220000  0.64890000  1
  H  H25  1  0.41330000  0.13660000  0.64110000  1
  H  H26  1  0.47980000  0.82520000  0.11790000  1
  H  H27  1  0.49460000  0.70520000  0.87980000  1
  H  H28  1  0.50540000  0.29480000  0.12020000  1
  H  H29  1  0.52020000  0.17480000  0.88210000  1
  H  H30  1  0.58670000  0.86340000  0.35890000  1
  H  H31  1  0.59880000  0.69780000  0.35110000  1
  H  H32  1  0.64280000  0.33840000  0.37820000  1
  H  H33  1  0.65460000  0.17480000  0.38210000  1
  H  H34  1  0.68950000  0.45480000  0.12590000  1
  H  H35  1  0.69560000  0.33840000  0.87820000  1
  H  H36  1  0.72330000  0.13660000  0.14110000  1
  H  H37  1  0.72760000  0.97620000  0.63280000  1
  H  H38  1  0.73020000  0.80940000  0.63770000  1
  H  H39  1  0.73340000  0.62380000  0.97000000  1
  H  H40  1  0.75140000  0.02380000  0.86720000  1
  H  H41  1  0.76530000  0.45480000  0.62590000  1
  H  H42  1  0.78940000  0.29480000  0.62020000  1
  H  H43  1  0.80620000  0.78960000  0.91400000  1
  H  H44  1  0.84140000  0.71220000  0.51560000  1
  H  H45  1  0.84850000  0.76040000  0.36510000  1
  H  H46  1  0.87080000  0.71220000  0.01560000  1
  H  H47  1  0.89040000  0.62380000  0.47000000  1
  H  H48  1  0.90100000  0.30220000  0.14890000  1
  H  H49  1  0.91190000  0.76040000  0.86510000  1
  H  H50  1  0.92080000  0.19060000  0.86230000  1
  H  H51  1  0.98340000  0.78960000  0.41400000  1
  C  C52  1  0.07027000  0.33574000  0.70760000  1
  C  C53  1  0.09685000  0.27150000  0.61670000  1
  C  C54  1  0.12754000  0.42288000  0.07730000  1
  C  C55  1  0.15942000  0.33824000  0.54390000  1
  C  C56  1  0.16084000  0.81288000  0.13350000  1
  C  C57  1  0.17465000  0.27150000  0.11670000  1
  C  C58  1  0.17882000  0.33824000  0.04390000  1
  C  C59  1  0.17971000  0.70002000  0.85870000  1
  C  C60  1  0.26179000  0.91318000  0.13070000  1
  C  C61  1  0.26547000  0.33574000  0.20760000  1
  C  C62  1  0.28578000  0.79956000  0.86190000  1
  C  C63  1  0.29065000  0.70550000  0.37470000  1
  C  C64  1  0.29307000  0.72554000  0.12430000  1
  C  C65  1  0.29534000  0.42288000  0.57730000  1
  C  C66  1  0.30379000  0.61018000  0.87190000  1
  C  C67  1  0.30639000  0.61018000  0.37190000  1
  C  C68  1  0.34796000  0.18712000  0.36650000  1
  C  C69  1  0.34861000  0.08682000  0.36930000  1
  C  C70  1  0.38198000  0.91776000  0.12480000  1
  C  C71  1  0.39752000  0.80144000  0.36960000  1
  C  C72  1  0.39889000  0.82338000  0.12170000  1
  C  C73  1  0.40392000  0.80144000  0.86960000  1
  C  C74  1  0.41485000  0.70550000  0.87470000  1
  C  C75  1  0.42449000  0.82338000  0.62170000  1
  C  C76  1  0.43247000  0.72554000  0.62430000  1
  C  C77  1  0.46422000  0.08224000  0.37520000  1
  C  C78  1  0.47969000  0.29998000  0.64130000  1
  C  C79  1  0.48622000  0.20044000  0.63810000  1
  C  C80  1  0.51378000  0.79956000  0.36190000  1
  C  C81  1  0.52031000  0.70002000  0.35870000  1
  C  C82  1  0.53578000  0.91776000  0.62480000  1
  C  C83  1  0.56753000  0.27446000  0.37570000  1
  C  C84  1  0.57551000  0.17662000  0.37830000  1
  C  C85  1  0.58515000  0.29450000  0.12530000  1
  C  C86  1  0.59608000  0.19856000  0.13040000  1
  C  C87  1  0.60111000  0.17662000  0.87830000  1
  C  C88  1  0.60248000  0.19856000  0.63040000  1
  C  C89  1  0.61802000  0.08224000  0.87520000  1
  C  C90  1  0.65139000  0.91318000  0.63070000  1
  C  C91  1  0.65204000  0.81288000  0.63350000  1
  C  C92  1  0.69361000  0.38982000  0.62810000  1
  C  C93  1  0.69621000  0.38982000  0.12810000  1
  C  C94  1  0.70466000  0.57712000  0.42270000  1
  C  C95  1  0.70693000  0.27446000  0.87570000  1
  C  C96  1  0.70935000  0.29450000  0.62530000  1
  C  C97  1  0.71422000  0.20044000  0.13810000  1
  C  C98  1  0.73453000  0.66426000  0.79240000  1
  C  C99  1  0.73821000  0.08682000  0.86930000  1
  C  C100  1  0.82029000  0.29998000  0.14130000  1
  C  C101  1  0.82118000  0.66176000  0.95610000  1
  C  C102  1  0.82535000  0.72850000  0.88330000  1
  C  C103  1  0.83916000  0.18712000  0.86650000  1
  C  C104  1  0.84058000  0.66176000  0.45610000  1
  C  C105  1  0.87246000  0.57712000  0.92270000  1
  C  C106  1  0.90315000  0.72850000  0.38330000  1
  C  C107  1  0.92973000  0.66426000  0.29240000  1
  N  N108  1  0.17645000  0.71970000  0.13020000  1
  N  N109  1  0.18721000  0.60702000  0.86610000  1
  N  N110  1  0.37991000  0.90062000  0.37240000  1
  N  N111  1  0.41981000  0.60702000  0.36610000  1
  N  N112  1  0.45675000  0.28030000  0.36980000  1
  N  N113  1  0.47818000  0.98196000  0.37550000  1
  N  N114  1  0.47929000  0.09938000  0.12760000  1
  N  N115  1  0.49622000  0.01804000  0.12450000  1
  N  N116  1  0.50378000  0.98196000  0.87550000  1
  N  N117  1  0.52071000  0.90062000  0.87240000  1
  N  N118  1  0.52182000  0.01804000  0.62450000  1
  N  N119  1  0.54325000  0.71970000  0.63020000  1
  N  N120  1  0.58019000  0.39298000  0.63390000  1
  N  N121  1  0.62009000  0.09938000  0.62760000  1
  N  N122  1  0.81279000  0.39298000  0.13390000  1
  N  N123  1  0.82355000  0.28030000  0.86980000  1
  O  O124  1  0.01751000  0.39682000  0.69772000  1
  O  O125  1  0.08565000  0.45650000  0.01583000  1
  O  O126  1  0.09565000  0.32410000  0.78880000  1
  O  O127  1  0.12469000  0.45758000  0.16403000  1
  O  O128  1  0.22845000  0.32410000  0.28880000  1
  O  O129  1  0.33289000  0.45758000  0.66403000  1
  O  O130  1  0.37085000  0.45650000  0.51583000  1
  O  O131  1  0.37931000  0.39682000  0.19772000  1
  O  O132  1  0.62069000  0.60318000  0.80228000  1
  O  O133  1  0.62915000  0.54350000  0.48417000  1
  O  O134  1  0.66711000  0.54242000  0.33597000  1
  O  O135  1  0.77155000  0.67590000  0.71120000  1
  O  O136  1  0.87531000  0.54242000  0.83597000  1
  O  O137  1  0.90435000  0.67590000  0.21120000  1
  O  O138  1  0.91435000  0.54350000  0.98417000  1
  O  O139  1  0.98249000  0.60318000  0.30228000  1
