# generated using pymatgen
data_SmPH11C7NO5
_symmetry_space_group_name_H-M   'P 1'
_cell_length_a   5.54620000
_cell_length_b   13.34300000
_cell_length_c   21.16400000
_cell_angle_alpha   90.00000000
_cell_angle_beta   96.51600000
_cell_angle_gamma   90.00000000
_symmetry_Int_Tables_number   1
_chemical_formula_structural   SmPH11C7NO5
_chemical_formula_sum   'Sm4 P4 H44 C28 N4 O20'
_cell_volume   1556.08104093
_cell_formula_units_Z   4
loop_
 _symmetry_equiv_pos_site_id
 _symmetry_equiv_pos_as_xyz
  1  'x, y, z'
loop_
 _atom_site_type_symbol
 _atom_site_label
 _atom_site_symmetry_multiplicity
 _atom_site_fract_x
 _atom_site_fract_y
 _atom_site_fract_z
 _atom_site_occupancy
  Sm  Sm0  1  0.37333000  0.63256000  0.52775000  1
  Sm  Sm1  1  0.37333000  0.86744000  0.02775000  1
  Sm  Sm2  1  0.62667000  0.13256000  0.97225000  1
  Sm  Sm3  1  0.62667000  0.36744000  0.47225000  1
  P  P4  1  0.08410000  0.52330000  0.41289000  1
  P  P5  1  0.08410000  0.97670000  0.91289000  1
  P  P6  1  0.91590000  0.02330000  0.08711000  1
  P  P7  1  0.91590000  0.47670000  0.58711000  1
  H  H8  1  0.01120000  0.74880000  0.67430000  1
  H  H9  1  0.01120000  0.75120000  0.17430000  1
  H  H10  1  0.02800000  0.09320000  0.36980000  1
  H  H11  1  0.02800000  0.40680000  0.86980000  1
  H  H12  1  0.09030000  0.19400000  0.16260000  1
  H  H13  1  0.09030000  0.30600000  0.66260000  1
  H  H14  1  0.09350000  0.00870000  0.71450000  1
  H  H15  1  0.09350000  0.49130000  0.21450000  1
  H  H16  1  0.12580000  0.71890000  0.29830000  1
  H  H17  1  0.12580000  0.78110000  0.79830000  1
  H  H18  1  0.21000000  0.19220000  0.74790000  1
  H  H19  1  0.21000000  0.30780000  0.24790000  1
  H  H20  1  0.22820000  0.02790000  0.81970000  1
  H  H21  1  0.22820000  0.47210000  0.31970000  1
  H  H22  1  0.23540000  0.59300000  0.21980000  1
  H  H23  1  0.23540000  0.90700000  0.71980000  1
  H  H24  1  0.24470000  0.06810000  0.33110000  1
  H  H25  1  0.24470000  0.43190000  0.83110000  1
  H  H26  1  0.32230000  0.58000000  0.33740000  1
  H  H27  1  0.32230000  0.92000000  0.83740000  1
  H  H28  1  0.37160000  0.21110000  0.25240000  1
  H  H29  1  0.37160000  0.28890000  0.75240000  1
  H  H30  1  0.62840000  0.71110000  0.24760000  1
  H  H31  1  0.62840000  0.78890000  0.74760000  1
  H  H32  1  0.67770000  0.08000000  0.16260000  1
  H  H33  1  0.67770000  0.42000000  0.66260000  1
  H  H34  1  0.75530000  0.56810000  0.16890000  1
  H  H35  1  0.75530000  0.93190000  0.66890000  1
  H  H36  1  0.76460000  0.09300000  0.28020000  1
  H  H37  1  0.76460000  0.40700000  0.78020000  1
  H  H38  1  0.77180000  0.52790000  0.68030000  1
  H  H39  1  0.77180000  0.97210000  0.18030000  1
  H  H40  1  0.79000000  0.69220000  0.75210000  1
  H  H41  1  0.79000000  0.80780000  0.25210000  1
  H  H42  1  0.87420000  0.21890000  0.20170000  1
  H  H43  1  0.87420000  0.28110000  0.70170000  1
  H  H44  1  0.90650000  0.50870000  0.78550000  1
  H  H45  1  0.90650000  0.99130000  0.28550000  1
  H  H46  1  0.90970000  0.69400000  0.33740000  1
  H  H47  1  0.90970000  0.80600000  0.83740000  1
  H  H48  1  0.97200000  0.59320000  0.13020000  1
  H  H49  1  0.97200000  0.90680000  0.63020000  1
  H  H50  1  0.98880000  0.24880000  0.82570000  1
  H  H51  1  0.98880000  0.25120000  0.32570000  1
  C  C52  1  0.03000000  0.18550000  0.20360000  1
  C  C53  1  0.03000000  0.31450000  0.70360000  1
  C  C54  1  0.07700000  0.56270000  0.22150000  1
  C  C55  1  0.07700000  0.93730000  0.72150000  1
  C  C56  1  0.09200000  0.10430000  0.32960000  1
  C  C57  1  0.09200000  0.39570000  0.82960000  1
  C  C58  1  0.14300000  0.21680000  0.32280000  1
  C  C59  1  0.14300000  0.28320000  0.82280000  1
  C  C60  1  0.18000000  0.53740000  0.33390000  1
  C  C61  1  0.18000000  0.96260000  0.83390000  1
  C  C62  1  0.20900000  0.23610000  0.25550000  1
  C  C63  1  0.20900000  0.26390000  0.75550000  1
  C  C64  1  0.32300000  0.23820000  0.87380000  1
  C  C65  1  0.32300000  0.26180000  0.37380000  1
  C  C66  1  0.67700000  0.73820000  0.62620000  1
  C  C67  1  0.67700000  0.76180000  0.12620000  1
  C  C68  1  0.79100000  0.73610000  0.24450000  1
  C  C69  1  0.79100000  0.76390000  0.74450000  1
  C  C70  1  0.82000000  0.03740000  0.16610000  1
  C  C71  1  0.82000000  0.46260000  0.66610000  1
  C  C72  1  0.85700000  0.71680000  0.17720000  1
  C  C73  1  0.85700000  0.78320000  0.67720000  1
  C  C74  1  0.90800000  0.60430000  0.17040000  1
  C  C75  1  0.90800000  0.89570000  0.67040000  1
  C  C76  1  0.92300000  0.06270000  0.27850000  1
  C  C77  1  0.92300000  0.43730000  0.77850000  1
  C  C78  1  0.97000000  0.68550000  0.29640000  1
  C  C79  1  0.97000000  0.81450000  0.79640000  1
  N  N80  1  0.00400000  0.57860000  0.28520000  1
  N  N81  1  0.00400000  0.92140000  0.78520000  1
  N  N82  1  0.99600000  0.07860000  0.21480000  1
  N  N83  1  0.99600000  0.42140000  0.71480000  1
  O  O84  1  0.03740000  0.62390000  0.44190000  1
  O  O85  1  0.03740000  0.87610000  0.94190000  1
  O  O86  1  0.12820000  0.54610000  0.58980000  1
  O  O87  1  0.12820000  0.95390000  0.08980000  1
  O  O88  1  0.29600000  0.24350000  0.43100000  1
  O  O89  1  0.29600000  0.25650000  0.93100000  1
  O  O90  1  0.31350000  0.01710000  0.95510000  1
  O  O91  1  0.31350000  0.48290000  0.45510000  1
  O  O92  1  0.49800000  0.18550000  0.86030000  1
  O  O93  1  0.49800000  0.31450000  0.36030000  1
  O  O94  1  0.50200000  0.68550000  0.63970000  1
  O  O95  1  0.50200000  0.81450000  0.13970000  1
  O  O96  1  0.68650000  0.51710000  0.54490000  1
  O  O97  1  0.68650000  0.98290000  0.04490000  1
  O  O98  1  0.70400000  0.74350000  0.06900000  1
  O  O99  1  0.70400000  0.75650000  0.56900000  1
  O  O100  1  0.87180000  0.04610000  0.91020000  1
  O  O101  1  0.87180000  0.45390000  0.41020000  1
  O  O102  1  0.96260000  0.12390000  0.05810000  1
  O  O103  1  0.96260000  0.37610000  0.55810000  1
