# generated using pymatgen
data_CuH6C6(NO)2
_symmetry_space_group_name_H-M   'P 1'
_cell_length_a   10.99020000
_cell_length_b   10.99020000
_cell_length_c   18.09400000
_cell_angle_alpha   90.00000000
_cell_angle_beta   90.00000000
_cell_angle_gamma   90.00000000
_symmetry_Int_Tables_number   1
_chemical_formula_structural   CuH6C6(NO)2
_chemical_formula_sum   'Cu8 H48 C48 N16 O16'
_cell_volume   2185.47467135
_cell_formula_units_Z   8
loop_
 _symmetry_equiv_pos_site_id
 _symmetry_equiv_pos_as_xyz
  1  'x, y, z'
loop_
 _atom_site_type_symbol
 _atom_site_label
 _atom_site_symmetry_multiplicity
 _atom_site_fract_x
 _atom_site_fract_y
 _atom_site_fract_z
 _atom_site_occupancy
  Cu  Cu0  1  0.09325000  0.60091000  0.38475000  1
  Cu  Cu1  1  0.11590000  0.60776000  0.89366000  1
  Cu  Cu2  1  0.39224000  0.11590000  0.64366000  1
  Cu  Cu3  1  0.39909000  0.09325000  0.13475000  1
  Cu  Cu4  1  0.60091000  0.90675000  0.63475000  1
  Cu  Cu5  1  0.60776000  0.88410000  0.14366000  1
  Cu  Cu6  1  0.88410000  0.39224000  0.39366000  1
  Cu  Cu7  1  0.90675000  0.39909000  0.88475000  1
  H  H8  1  0.00960000  0.86020000  0.52620000  1
  H  H9  1  0.04040000  0.81880000  0.05890000  1
  H  H10  1  0.04080000  0.09520000  0.51040000  1
  H  H11  1  0.04410000  0.84210000  0.44290000  1
  H  H12  1  0.07100000  0.83800000  0.97510000  1
  H  H13  1  0.07150000  0.08200000  0.96420000  1
  H  H14  1  0.08200000  0.92850000  0.21420000  1
  H  H15  1  0.09520000  0.95920000  0.76040000  1
  H  H16  1  0.13980000  0.00960000  0.27620000  1
  H  H17  1  0.15790000  0.04410000  0.19290000  1
  H  H18  1  0.16200000  0.07100000  0.72510000  1
  H  H19  1  0.18120000  0.04040000  0.80890000  1
  H  H20  1  0.30960000  0.57300000  0.49900000  1
  H  H21  1  0.31920000  0.56570000  0.00850000  1
  H  H22  1  0.37610000  0.48650000  0.44320000  1
  H  H23  1  0.38040000  0.45880000  0.52810000  1
  H  H24  1  0.39120000  0.45040000  0.03480000  1
  H  H25  1  0.39340000  0.48840000  0.95130000  1
  H  H26  1  0.42700000  0.30960000  0.24900000  1
  H  H27  1  0.43430000  0.31920000  0.75850000  1
  H  H28  1  0.45040000  0.60880000  0.28480000  1
  H  H29  1  0.45880000  0.61960000  0.77810000  1
  H  H30  1  0.48650000  0.62390000  0.69320000  1
  H  H31  1  0.48840000  0.60660000  0.20130000  1
  H  H32  1  0.51160000  0.39340000  0.70130000  1
  H  H33  1  0.51350000  0.37610000  0.19320000  1
  H  H34  1  0.54120000  0.38040000  0.27810000  1
  H  H35  1  0.54960000  0.39120000  0.78480000  1
  H  H36  1  0.56570000  0.68080000  0.25850000  1
  H  H37  1  0.57300000  0.69040000  0.74900000  1
  H  H38  1  0.60660000  0.51160000  0.45130000  1
  H  H39  1  0.60880000  0.54960000  0.53480000  1
  H  H40  1  0.61960000  0.54120000  0.02810000  1
  H  H41  1  0.62390000  0.51350000  0.94320000  1
  H  H42  1  0.68080000  0.43430000  0.50850000  1
  H  H43  1  0.69040000  0.42700000  0.99900000  1
  H  H44  1  0.81880000  0.95960000  0.30890000  1
  H  H45  1  0.83800000  0.92900000  0.22510000  1
  H  H46  1  0.84210000  0.95590000  0.69290000  1
  H  H47  1  0.86020000  0.99040000  0.77620000  1
  H  H48  1  0.90480000  0.04080000  0.26040000  1
  H  H49  1  0.91800000  0.07150000  0.71420000  1
  H  H50  1  0.92850000  0.91800000  0.46420000  1
  H  H51  1  0.92900000  0.16200000  0.47510000  1
  H  H52  1  0.95590000  0.15790000  0.94290000  1
  H  H53  1  0.95920000  0.90480000  0.01040000  1
  H  H54  1  0.95960000  0.18120000  0.55890000  1
  H  H55  1  0.99040000  0.13980000  0.02620000  1
  C  C56  1  0.00650000  0.83130000  0.01060000  1
  C  C57  1  0.02210000  0.15070000  0.97720000  1
  C  C58  1  0.07220000  0.27270000  0.49110000  1
  C  C59  1  0.09540000  0.26060000  0.97480000  1
  C  C60  1  0.15070000  0.97790000  0.22720000  1
  C  C61  1  0.16870000  0.00650000  0.76060000  1
  C  C62  1  0.18890000  0.29830000  0.51540000  1
  C  C63  1  0.20760000  0.28690000  0.00440000  1
  C  C64  1  0.21680000  0.41430000  0.48160000  1
  C  C65  1  0.21770000  0.71540000  0.30440000  1
  C  C66  1  0.23250000  0.40620000  0.98090000  1
  C  C67  1  0.23640000  0.73160000  0.81630000  1
  C  C68  1  0.26060000  0.90460000  0.22480000  1
  C  C69  1  0.26840000  0.23640000  0.56630000  1
  C  C70  1  0.27270000  0.92780000  0.74110000  1
  C  C71  1  0.28460000  0.21770000  0.05440000  1
  C  C72  1  0.28690000  0.79240000  0.25440000  1
  C  C73  1  0.29830000  0.81110000  0.76540000  1
  C  C74  1  0.33120000  0.49010000  0.48860000  1
  C  C75  1  0.34450000  0.48500000  0.99520000  1
  C  C76  1  0.40620000  0.76750000  0.23090000  1
  C  C77  1  0.41430000  0.78320000  0.73160000  1
  C  C78  1  0.48500000  0.65550000  0.24520000  1
  C  C79  1  0.49010000  0.66880000  0.73860000  1
  C  C80  1  0.50990000  0.33120000  0.23860000  1
  C  C81  1  0.51500000  0.34450000  0.74520000  1
  C  C82  1  0.58570000  0.21680000  0.23160000  1
  C  C83  1  0.59380000  0.23250000  0.73090000  1
  C  C84  1  0.65550000  0.51500000  0.49520000  1
  C  C85  1  0.66880000  0.50990000  0.98860000  1
  C  C86  1  0.70170000  0.18890000  0.26540000  1
  C  C87  1  0.71310000  0.20760000  0.75440000  1
  C  C88  1  0.71540000  0.78230000  0.55440000  1
  C  C89  1  0.72730000  0.07220000  0.24110000  1
  C  C90  1  0.73160000  0.76360000  0.06630000  1
  C  C91  1  0.73940000  0.09540000  0.72480000  1
  C  C92  1  0.76360000  0.26840000  0.31630000  1
  C  C93  1  0.76750000  0.59380000  0.48090000  1
  C  C94  1  0.78230000  0.28460000  0.80440000  1
  C  C95  1  0.78320000  0.58570000  0.98160000  1
  C  C96  1  0.79240000  0.71310000  0.50440000  1
  C  C97  1  0.81110000  0.70170000  0.01540000  1
  C  C98  1  0.83130000  0.99350000  0.26060000  1
  C  C99  1  0.84930000  0.02210000  0.72720000  1
  C  C100  1  0.90460000  0.73940000  0.47480000  1
  C  C101  1  0.92780000  0.72730000  0.99110000  1
  C  C102  1  0.97790000  0.84930000  0.47720000  1
  C  C103  1  0.99350000  0.16870000  0.51060000  1
  N  N104  1  0.03790000  0.36530000  0.44700000  1
  N  N105  1  0.06200000  0.36010000  0.93380000  1
  N  N106  1  0.12530000  0.45460000  0.44380000  1
  N  N107  1  0.14600000  0.45380000  0.94270000  1
  N  N108  1  0.36010000  0.93800000  0.18380000  1
  N  N109  1  0.36530000  0.96210000  0.69700000  1
  N  N110  1  0.45380000  0.85400000  0.19270000  1
  N  N111  1  0.45460000  0.87470000  0.69380000  1
  N  N112  1  0.54540000  0.12530000  0.19380000  1
  N  N113  1  0.54620000  0.14600000  0.69270000  1
  N  N114  1  0.63470000  0.03790000  0.19700000  1
  N  N115  1  0.63990000  0.06200000  0.68380000  1
  N  N116  1  0.85400000  0.54620000  0.44270000  1
  N  N117  1  0.87470000  0.54540000  0.94380000  1
  N  N118  1  0.93800000  0.63990000  0.43380000  1
  N  N119  1  0.96210000  0.63470000  0.94700000  1
  O  O120  1  0.10930000  0.75570000  0.32270000  1
  O  O121  1  0.13260000  0.77120000  0.84210000  1
  O  O122  1  0.22880000  0.13260000  0.59210000  1
  O  O123  1  0.24430000  0.10930000  0.07270000  1
  O  O124  1  0.24900000  0.61790000  0.33200000  1
  O  O125  1  0.26860000  0.63130000  0.83710000  1
  O  O126  1  0.36870000  0.26860000  0.58710000  1
  O  O127  1  0.38210000  0.24900000  0.08200000  1
  O  O128  1  0.61790000  0.75100000  0.58200000  1
  O  O129  1  0.63130000  0.73140000  0.08710000  1
  O  O130  1  0.73140000  0.36870000  0.33710000  1
  O  O131  1  0.75100000  0.38210000  0.83200000  1
  O  O132  1  0.75570000  0.89070000  0.57270000  1
  O  O133  1  0.77120000  0.86740000  0.09210000  1
  O  O134  1  0.86740000  0.22880000  0.34210000  1
  O  O135  1  0.89070000  0.24430000  0.82270000  1
