# generated using pymatgen
data_ZnH12C15(NO)4
_symmetry_space_group_name_H-M   'P 1'
_cell_length_a   8.74100000
_cell_length_b   14.79600000
_cell_length_c   19.34000000
_cell_angle_alpha   90.00000000
_cell_angle_beta   90.00000000
_cell_angle_gamma   90.00000000
_symmetry_Int_Tables_number   1
_chemical_formula_structural   ZnH12C15(NO)4
_chemical_formula_sum   'Zn4 H48 C60 N16 O16'
_cell_volume   2501.27770824
_cell_formula_units_Z   4
loop_
 _symmetry_equiv_pos_site_id
 _symmetry_equiv_pos_as_xyz
  1  'x, y, z'
loop_
 _atom_site_type_symbol
 _atom_site_label
 _atom_site_symmetry_multiplicity
 _atom_site_fract_x
 _atom_site_fract_y
 _atom_site_fract_z
 _atom_site_occupancy
  Zn  Zn0  1  0.13146000  0.95552000  0.42670000  1
  Zn  Zn1  1  0.36854000  0.04448000  0.92670000  1
  Zn  Zn2  1  0.63146000  0.54448000  0.57330000  1
  Zn  Zn3  1  0.86854000  0.45552000  0.07330000  1
  H  H4  1  0.08150000  0.32210000  0.13870000  1
  H  H5  1  0.08990000  0.51400000  0.18020000  1
  H  H6  1  0.10570000  0.53460000  0.29770000  1
  H  H7  1  0.12570000  0.17310000  0.14420000  1
  H  H8  1  0.15570000  0.02880000  0.69130000  1
  H  H9  1  0.15880000  0.04930000  0.80830000  1
  H  H10  1  0.16730000  0.61660000  0.91980000  1
  H  H11  1  0.18900000  0.42600000  0.53300000  1
  H  H12  1  0.19630000  0.63410000  0.49960000  1
  H  H13  1  0.20500000  0.00100000  0.09500000  1
  H  H14  1  0.22190000  0.52160000  0.89400000  1
  H  H15  1  0.23730000  0.78790000  0.50050000  1
  H  H16  1  0.26270000  0.21210000  0.00050000  1
  H  H17  1  0.27810000  0.47840000  0.39400000  1
  H  H18  1  0.29500000  0.99900000  0.59500000  1
  H  H19  1  0.30370000  0.36590000  0.99960000  1
  H  H20  1  0.31100000  0.57400000  0.03300000  1
  H  H21  1  0.33270000  0.38340000  0.41980000  1
  H  H22  1  0.34120000  0.95070000  0.30830000  1
  H  H23  1  0.34430000  0.97120000  0.19130000  1
  H  H24  1  0.37430000  0.82690000  0.64420000  1
  H  H25  1  0.39430000  0.46540000  0.79770000  1
  H  H26  1  0.41010000  0.48600000  0.68020000  1
  H  H27  1  0.41850000  0.67790000  0.63870000  1
  H  H28  1  0.58150000  0.17790000  0.86130000  1
  H  H29  1  0.58990000  0.98600000  0.81980000  1
  H  H30  1  0.60570000  0.96540000  0.70230000  1
  H  H31  1  0.62570000  0.32690000  0.85580000  1
  H  H32  1  0.65570000  0.47120000  0.30870000  1
  H  H33  1  0.65880000  0.45070000  0.19170000  1
  H  H34  1  0.66730000  0.88340000  0.08020000  1
  H  H35  1  0.68900000  0.07400000  0.46700000  1
  H  H36  1  0.69630000  0.86590000  0.50040000  1
  H  H37  1  0.70500000  0.49900000  0.90500000  1
  H  H38  1  0.72190000  0.97840000  0.10600000  1
  H  H39  1  0.73730000  0.71210000  0.49950000  1
  H  H40  1  0.76270000  0.28790000  0.99950000  1
  H  H41  1  0.77810000  0.02160000  0.60600000  1
  H  H42  1  0.79500000  0.50100000  0.40500000  1
  H  H43  1  0.80370000  0.13410000  0.00040000  1
  H  H44  1  0.81100000  0.92600000  0.96700000  1
  H  H45  1  0.83270000  0.11660000  0.58020000  1
  H  H46  1  0.84120000  0.54930000  0.69170000  1
  H  H47  1  0.84430000  0.52880000  0.80870000  1
  H  H48  1  0.87430000  0.67310000  0.35580000  1
  H  H49  1  0.89430000  0.03460000  0.20230000  1
  H  H50  1  0.91010000  0.01400000  0.31980000  1
  H  H51  1  0.91850000  0.82210000  0.36130000  1
  C  C52  1  0.00260000  0.50550000  0.20690000  1
  C  C53  1  0.01390000  0.51720000  0.27730000  1
  C  C54  1  0.02350000  0.28430000  0.11060000  1
  C  C55  1  0.03170000  0.63470000  0.42670000  1
  C  C56  1  0.04810000  0.51330000  0.96400000  1
  C  C57  1  0.05110000  0.19490000  0.11430000  1
  C  C58  1  0.05160000  0.48480000  0.47900000  1
  C  C59  1  0.06710000  0.98180000  0.96470000  1
  C  C60  1  0.11750000  0.00210000  0.18250000  1
  C  C61  1  0.13950000  0.67130000  0.47060000  1
  C  C62  1  0.16280000  0.76480000  0.47100000  1
  C  C63  1  0.18240000  0.44160000  0.48330000  1
  C  C64  1  0.19070000  0.55550000  0.93450000  1
  C  C65  1  0.24580000  0.02090000  0.71610000  1
  C  C66  1  0.24860000  0.03140000  0.78650000  1
  C  C67  1  0.25140000  0.96860000  0.28650000  1
  C  C68  1  0.25420000  0.97910000  0.21610000  1
  C  C69  1  0.30930000  0.44450000  0.43450000  1
  C  C70  1  0.31760000  0.55840000  0.98330000  1
  C  C71  1  0.33720000  0.23520000  0.97100000  1
  C  C72  1  0.36050000  0.32870000  0.97060000  1
  C  C73  1  0.38250000  0.99790000  0.68250000  1
  C  C74  1  0.43290000  0.01820000  0.46470000  1
  C  C75  1  0.44840000  0.51520000  0.97900000  1
  C  C76  1  0.44890000  0.80510000  0.61430000  1
  C  C77  1  0.45190000  0.48670000  0.46400000  1
  C  C78  1  0.46830000  0.36530000  0.92670000  1
  C  C79  1  0.47650000  0.71570000  0.61060000  1
  C  C80  1  0.48610000  0.48280000  0.77730000  1
  C  C81  1  0.49740000  0.49450000  0.70690000  1
  C  C82  1  0.50260000  0.99450000  0.79310000  1
  C  C83  1  0.51390000  0.98280000  0.72270000  1
  C  C84  1  0.52350000  0.21570000  0.88940000  1
  C  C85  1  0.53170000  0.86530000  0.57330000  1
  C  C86  1  0.54810000  0.98670000  0.03600000  1
  C  C87  1  0.55110000  0.30510000  0.88570000  1
  C  C88  1  0.55160000  0.01520000  0.52100000  1
  C  C89  1  0.56710000  0.51820000  0.03530000  1
  C  C90  1  0.61750000  0.49790000  0.81750000  1
  C  C91  1  0.63950000  0.82870000  0.52940000  1
  C  C92  1  0.66280000  0.73520000  0.52900000  1
  C  C93  1  0.68240000  0.05840000  0.51670000  1
  C  C94  1  0.69070000  0.94450000  0.06550000  1
  C  C95  1  0.74580000  0.47910000  0.28390000  1
  C  C96  1  0.74860000  0.46860000  0.21350000  1
  C  C97  1  0.75140000  0.53140000  0.71350000  1
  C  C98  1  0.75420000  0.52090000  0.78390000  1
  C  C99  1  0.80930000  0.05550000  0.56550000  1
  C  C100  1  0.81760000  0.94160000  0.01670000  1
  C  C101  1  0.83720000  0.26480000  0.02900000  1
  C  C102  1  0.86050000  0.17130000  0.02940000  1
  C  C103  1  0.88250000  0.50210000  0.31750000  1
  C  C104  1  0.93290000  0.48180000  0.53530000  1
  C  C105  1  0.94840000  0.98480000  0.02100000  1
  C  C106  1  0.94890000  0.69490000  0.38570000  1
  C  C107  1  0.95190000  0.01330000  0.53600000  1
  C  C108  1  0.96830000  0.13470000  0.07330000  1
  C  C109  1  0.97650000  0.78430000  0.38940000  1
  C  C110  1  0.98610000  0.01720000  0.22270000  1
  C  C111  1  0.99740000  0.00550000  0.29310000  1
  N  N112  1  0.01160000  0.54280000  0.42170000  1
  N  N113  1  0.08410000  0.82360000  0.43140000  1
  N  N114  1  0.12060000  0.01150000  0.11260000  1
  N  N115  1  0.12830000  0.98240000  0.32550000  1
  N  N116  1  0.37170000  0.01760000  0.82550000  1
  N  N117  1  0.37940000  0.98850000  0.61260000  1
  N  N118  1  0.41590000  0.17640000  0.93140000  1
  N  N119  1  0.48840000  0.45720000  0.92170000  1
  N  N120  1  0.51160000  0.95720000  0.57830000  1
  N  N121  1  0.58410000  0.67640000  0.56860000  1
  N  N122  1  0.62060000  0.48850000  0.88740000  1
  N  N123  1  0.62830000  0.51760000  0.67450000  1
  N  N124  1  0.87170000  0.48240000  0.17450000  1
  N  N125  1  0.87940000  0.51150000  0.38740000  1
  N  N126  1  0.91590000  0.32360000  0.06860000  1
  N  N127  1  0.98840000  0.04280000  0.07830000  1
  O  O128  1  0.03230000  0.52350000  0.02970000  1
  O  O129  1  0.04510000  0.97340000  0.57280000  1
  O  O130  1  0.05560000  0.92870000  0.91500000  1
  O  O131  1  0.17430000  0.03960000  0.97250000  1
  O  O132  1  0.32570000  0.96040000  0.47250000  1
  O  O133  1  0.44440000  0.07130000  0.41500000  1
  O  O134  1  0.45490000  0.02660000  0.07280000  1
  O  O135  1  0.46770000  0.47650000  0.52970000  1
  O  O136  1  0.53230000  0.97650000  0.97030000  1
  O  O137  1  0.54510000  0.52660000  0.42720000  1
  O  O138  1  0.55560000  0.57130000  0.08500000  1
  O  O139  1  0.67430000  0.46040000  0.02750000  1
  O  O140  1  0.82570000  0.53960000  0.52750000  1
  O  O141  1  0.94440000  0.42870000  0.58500000  1
  O  O142  1  0.95490000  0.47340000  0.92720000  1
  O  O143  1  0.96770000  0.02350000  0.47030000  1
