# generated using pymatgen
data_CdH7C12(NO2)2
_symmetry_space_group_name_H-M   'P 1'
_cell_length_a   13.09130000
_cell_length_b   13.20870000
_cell_length_c   26.91600000
_cell_angle_alpha   90.00000000
_cell_angle_beta   90.00000000
_cell_angle_gamma   90.00000000
_symmetry_Int_Tables_number   1
_chemical_formula_structural   CdH7C12(NO2)2
_chemical_formula_sum   'Cd8 H56 C96 N16 O32'
_cell_volume   4654.28926581
_cell_formula_units_Z   8
loop_
 _symmetry_equiv_pos_site_id
 _symmetry_equiv_pos_as_xyz
  1  'x, y, z'
loop_
 _atom_site_type_symbol
 _atom_site_label
 _atom_site_symmetry_multiplicity
 _atom_site_fract_x
 _atom_site_fract_y
 _atom_site_fract_z
 _atom_site_occupancy
  Cd  Cd0  1  0.19481000  0.19647000  0.17088000  1
  Cd  Cd1  1  0.19481000  0.69647000  0.32913000  1
  Cd  Cd2  1  0.30519000  0.19647000  0.67088000  1
  Cd  Cd3  1  0.30519000  0.69647000  0.82913000  1
  Cd  Cd4  1  0.69481000  0.30353000  0.17088000  1
  Cd  Cd5  1  0.69481000  0.80353000  0.32913000  1
  Cd  Cd6  1  0.80519000  0.30353000  0.67088000  1
  Cd  Cd7  1  0.80519000  0.80353000  0.82913000  1
  H  H8  1  0.00820000  0.21370000  0.09420000  1
  H  H9  1  0.00820000  0.71370000  0.40580000  1
  H  H10  1  0.04180000  0.31210000  0.70780000  1
  H  H11  1  0.04180000  0.81210000  0.79220000  1
  H  H12  1  0.06460000  0.35460000  0.52640000  1
  H  H13  1  0.06460000  0.85460000  0.97360000  1
  H  H14  1  0.12080000  0.41540000  0.46040000  1
  H  H15  1  0.12080000  0.91540000  0.03960000  1
  H  H16  1  0.15850000  0.40830000  0.75130000  1
  H  H17  1  0.15850000  0.90830000  0.74870000  1
  H  H18  1  0.17720000  0.00330000  0.24400000  1
  H  H19  1  0.17720000  0.50330000  0.25600000  1
  H  H20  1  0.19840000  0.49730000  0.39470000  1
  H  H21  1  0.19840000  0.99730000  0.10530000  1
  H  H22  1  0.30160000  0.49730000  0.89470000  1
  H  H23  1  0.30160000  0.99730000  0.60530000  1
  H  H24  1  0.32280000  0.00330000  0.74400000  1
  H  H25  1  0.32280000  0.50330000  0.75600000  1
  H  H26  1  0.34150000  0.40830000  0.25130000  1
  H  H27  1  0.34150000  0.90830000  0.24870000  1
  H  H28  1  0.37920000  0.41540000  0.96040000  1
  H  H29  1  0.37920000  0.91540000  0.53960000  1
  H  H30  1  0.43540000  0.35460000  0.02640000  1
  H  H31  1  0.43540000  0.85460000  0.47360000  1
  H  H32  1  0.45820000  0.31210000  0.20780000  1
  H  H33  1  0.45820000  0.81210000  0.29220000  1
  H  H34  1  0.49180000  0.21370000  0.59420000  1
  H  H35  1  0.49180000  0.71370000  0.90580000  1
  H  H36  1  0.50820000  0.28630000  0.09420000  1
  H  H37  1  0.50820000  0.78630000  0.40580000  1
  H  H38  1  0.54180000  0.18790000  0.70780000  1
  H  H39  1  0.54180000  0.68790000  0.79220000  1
  H  H40  1  0.56460000  0.14540000  0.52640000  1
  H  H41  1  0.56460000  0.64540000  0.97360000  1
  H  H42  1  0.62080000  0.08460000  0.46040000  1
  H  H43  1  0.62080000  0.58460000  0.03960000  1
  H  H44  1  0.65850000  0.09170000  0.75130000  1
  H  H45  1  0.65850000  0.59170000  0.74870000  1
  H  H46  1  0.67720000  0.49670000  0.24400000  1
  H  H47  1  0.67720000  0.99670000  0.25600000  1
  H  H48  1  0.69840000  0.00270000  0.39470000  1
  H  H49  1  0.69840000  0.50270000  0.10530000  1
  H  H50  1  0.80160000  0.00270000  0.89470000  1
  H  H51  1  0.80160000  0.50270000  0.60530000  1
  H  H52  1  0.82280000  0.49670000  0.74400000  1
  H  H53  1  0.82280000  0.99670000  0.75600000  1
  H  H54  1  0.84150000  0.09170000  0.25130000  1
  H  H55  1  0.84150000  0.59170000  0.24870000  1
  H  H56  1  0.87920000  0.08460000  0.96040000  1
  H  H57  1  0.87920000  0.58460000  0.53960000  1
  H  H58  1  0.93540000  0.14540000  0.02640000  1
  H  H59  1  0.93540000  0.64540000  0.47360000  1
  H  H60  1  0.95820000  0.18790000  0.20780000  1
  H  H61  1  0.95820000  0.68790000  0.29220000  1
  H  H62  1  0.99180000  0.28630000  0.59420000  1
  H  H63  1  0.99180000  0.78630000  0.90580000  1
  C  C64  1  0.00940000  0.38740000  0.54100000  1
  C  C65  1  0.00940000  0.88740000  0.95900000  1
  C  C66  1  0.01940000  0.37000000  0.72410000  1
  C  C67  1  0.01940000  0.87000000  0.77590000  1
  C  C68  1  0.02380000  0.02400000  0.02170000  1
  C  C69  1  0.02380000  0.52400000  0.47830000  1
  C  C70  1  0.03650000  0.15460000  0.08150000  1
  C  C71  1  0.03650000  0.65460000  0.41850000  1
  C  C72  1  0.04470000  0.46100000  0.22590000  1
  C  C73  1  0.04470000  0.96100000  0.27410000  1
  C  C74  1  0.05890000  0.01300000  0.72350000  1
  C  C75  1  0.05890000  0.51300000  0.77650000  1
  C  C76  1  0.08910000  0.37020000  0.20010000  1
  C  C77  1  0.08910000  0.87020000  0.29990000  1
  C  C78  1  0.09010000  0.42740000  0.75080000  1
  C  C79  1  0.09010000  0.92740000  0.74920000  1
  C  C80  1  0.09900000  0.48010000  0.45180000  1
  C  C81  1  0.09900000  0.98010000  0.04820000  1
  C  C82  1  0.10870000  0.02160000  0.24600000  1
  C  C83  1  0.10870000  0.52160000  0.25400000  1
  C  C84  1  0.14000000  0.07700000  0.70000000  1
  C  C85  1  0.14000000  0.57700000  0.80000000  1
  C  C86  1  0.14530000  0.02940000  0.08870000  1
  C  C87  1  0.14530000  0.52940000  0.41130000  1
  C  C88  1  0.35470000  0.02940000  0.58870000  1
  C  C89  1  0.35470000  0.52940000  0.91130000  1
  C  C90  1  0.36000000  0.07700000  0.20000000  1
  C  C91  1  0.36000000  0.57700000  0.30000000  1
  C  C92  1  0.39130000  0.02160000  0.74600000  1
  C  C93  1  0.39130000  0.52160000  0.75400000  1
  C  C94  1  0.40100000  0.48010000  0.95180000  1
  C  C95  1  0.40100000  0.98010000  0.54820000  1
  C  C96  1  0.40990000  0.42740000  0.25080000  1
  C  C97  1  0.40990000  0.92740000  0.24920000  1
  C  C98  1  0.41090000  0.37020000  0.70010000  1
  C  C99  1  0.41090000  0.87020000  0.79990000  1
  C  C100  1  0.44110000  0.01300000  0.22350000  1
  C  C101  1  0.44110000  0.51300000  0.27650000  1
  C  C102  1  0.45530000  0.46100000  0.72590000  1
  C  C103  1  0.45530000  0.96100000  0.77410000  1
  C  C104  1  0.46350000  0.15460000  0.58150000  1
  C  C105  1  0.46350000  0.65460000  0.91850000  1
  C  C106  1  0.47620000  0.02400000  0.52170000  1
  C  C107  1  0.47620000  0.52400000  0.97830000  1
  C  C108  1  0.48060000  0.37000000  0.22410000  1
  C  C109  1  0.48060000  0.87000000  0.27590000  1
  C  C110  1  0.49060000  0.38740000  0.04100000  1
  C  C111  1  0.49060000  0.88740000  0.45900000  1
  C  C112  1  0.50940000  0.11260000  0.54100000  1
  C  C113  1  0.50940000  0.61260000  0.95900000  1
  C  C114  1  0.51940000  0.13000000  0.72410000  1
  C  C115  1  0.51940000  0.63000000  0.77590000  1
  C  C116  1  0.52380000  0.47600000  0.02170000  1
  C  C117  1  0.52380000  0.97600000  0.47830000  1
  C  C118  1  0.53650000  0.34540000  0.08150000  1
  C  C119  1  0.53650000  0.84540000  0.41850000  1
  C  C120  1  0.54470000  0.03900000  0.22590000  1
  C  C121  1  0.54470000  0.53900000  0.27410000  1
  C  C122  1  0.55890000  0.48700000  0.72350000  1
  C  C123  1  0.55890000  0.98700000  0.77650000  1
  C  C124  1  0.58910000  0.12980000  0.20010000  1
  C  C125  1  0.58910000  0.62980000  0.29990000  1
  C  C126  1  0.59010000  0.07260000  0.75080000  1
  C  C127  1  0.59010000  0.57260000  0.74920000  1
  C  C128  1  0.59900000  0.01990000  0.45180000  1
  C  C129  1  0.59900000  0.51990000  0.04820000  1
  C  C130  1  0.60870000  0.47840000  0.24600000  1
  C  C131  1  0.60870000  0.97840000  0.25400000  1
  C  C132  1  0.64000000  0.42300000  0.70000000  1
  C  C133  1  0.64000000  0.92300000  0.80000000  1
  C  C134  1  0.64530000  0.47060000  0.08870000  1
  C  C135  1  0.64530000  0.97060000  0.41130000  1
  C  C136  1  0.85470000  0.47060000  0.58870000  1
  C  C137  1  0.85470000  0.97060000  0.91130000  1
  C  C138  1  0.86000000  0.42300000  0.20000000  1
  C  C139  1  0.86000000  0.92300000  0.30000000  1
  C  C140  1  0.89130000  0.47840000  0.74600000  1
  C  C141  1  0.89130000  0.97840000  0.75400000  1
  C  C142  1  0.90100000  0.01990000  0.95180000  1
  C  C143  1  0.90100000  0.51990000  0.54820000  1
  C  C144  1  0.90990000  0.07260000  0.25080000  1
  C  C145  1  0.90990000  0.57260000  0.24920000  1
  C  C146  1  0.91090000  0.12980000  0.70010000  1
  C  C147  1  0.91090000  0.62980000  0.79990000  1
  C  C148  1  0.94110000  0.48700000  0.22350000  1
  C  C149  1  0.94110000  0.98700000  0.27650000  1
  C  C150  1  0.95530000  0.03900000  0.72590000  1
  C  C151  1  0.95530000  0.53900000  0.77410000  1
  C  C152  1  0.96350000  0.34540000  0.58150000  1
  C  C153  1  0.96350000  0.84540000  0.91850000  1
  C  C154  1  0.97620000  0.47600000  0.52170000  1
  C  C155  1  0.97620000  0.97600000  0.97830000  1
  C  C156  1  0.98060000  0.13000000  0.22410000  1
  C  C157  1  0.98060000  0.63000000  0.27590000  1
  C  C158  1  0.99060000  0.11260000  0.04100000  1
  C  C159  1  0.99060000  0.61260000  0.45900000  1
  N  N160  1  0.07890000  0.10510000  0.22118000  1
  N  N161  1  0.07890000  0.60510000  0.27882000  1
  N  N162  1  0.11600000  0.11890000  0.10350000  1
  N  N163  1  0.11600000  0.61890000  0.39650000  1
  N  N164  1  0.38400000  0.11890000  0.60350000  1
  N  N165  1  0.38400000  0.61890000  0.89650000  1
  N  N166  1  0.42110000  0.10510000  0.72118000  1
  N  N167  1  0.42110000  0.60510000  0.77882000  1
  N  N168  1  0.57890000  0.39490000  0.22118000  1
  N  N169  1  0.57890000  0.89490000  0.27882000  1
  N  N170  1  0.61600000  0.38110000  0.10350000  1
  N  N171  1  0.61600000  0.88110000  0.39650000  1
  N  N172  1  0.88400000  0.38110000  0.60350000  1
  N  N173  1  0.88400000  0.88110000  0.89650000  1
  N  N174  1  0.92110000  0.39490000  0.72118000  1
  N  N175  1  0.92110000  0.89490000  0.77882000  1
  O  O176  1  0.04360000  0.33090000  0.16479000  1
  O  O177  1  0.04360000  0.83090000  0.33521000  1
  O  O178  1  0.16620000  0.15630000  0.72080000  1
  O  O179  1  0.16620000  0.65630000  0.77920000  1
  O  O180  1  0.17280000  0.33780000  0.21660000  1
  O  O181  1  0.17280000  0.83780000  0.28340000  1
  O  O182  1  0.18440000  0.04250000  0.66350000  1
  O  O183  1  0.18440000  0.54250000  0.83650000  1
  O  O184  1  0.31560000  0.04250000  0.16350000  1
  O  O185  1  0.31560000  0.54250000  0.33650000  1
  O  O186  1  0.32720000  0.33780000  0.71660000  1
  O  O187  1  0.32720000  0.83780000  0.78340000  1
  O  O188  1  0.33380000  0.15630000  0.22080000  1
  O  O189  1  0.33380000  0.65630000  0.27920000  1
  O  O190  1  0.45640000  0.33090000  0.66479000  1
  O  O191  1  0.45640000  0.83090000  0.83521000  1
  O  O192  1  0.54360000  0.16910000  0.16479000  1
  O  O193  1  0.54360000  0.66910000  0.33521000  1
  O  O194  1  0.66620000  0.34370000  0.72080000  1
  O  O195  1  0.66620000  0.84370000  0.77920000  1
  O  O196  1  0.67280000  0.16220000  0.21660000  1
  O  O197  1  0.67280000  0.66220000  0.28340000  1
  O  O198  1  0.68440000  0.45750000  0.66350000  1
  O  O199  1  0.68440000  0.95750000  0.83650000  1
  O  O200  1  0.81560000  0.45750000  0.16350000  1
  O  O201  1  0.81560000  0.95750000  0.33650000  1
  O  O202  1  0.82720000  0.16220000  0.71660000  1
  O  O203  1  0.82720000  0.66220000  0.78340000  1
  O  O204  1  0.83380000  0.34370000  0.22080000  1
  O  O205  1  0.83380000  0.84370000  0.27920000  1
  O  O206  1  0.95640000  0.16910000  0.66479000  1
  O  O207  1  0.95640000  0.66910000  0.83521000  1
