# generated using pymatgen
data_K2Eu2H12C32O19
_symmetry_space_group_name_H-M   'P 1'
_cell_length_a   11.07200000
_cell_length_b   12.67600000
_cell_length_c   16.02200000
_cell_angle_alpha   100.29100000
_cell_angle_beta   105.88400000
_cell_angle_gamma   95.92700000
_symmetry_Int_Tables_number   1
_chemical_formula_structural   K2Eu2H12C32O19
_chemical_formula_sum   'K4 Eu4 H24 C64 O38'
_cell_volume   2100.32883573
_cell_formula_units_Z   2
loop_
 _symmetry_equiv_pos_site_id
 _symmetry_equiv_pos_as_xyz
  1  'x, y, z'
loop_
 _atom_site_type_symbol
 _atom_site_label
 _atom_site_symmetry_multiplicity
 _atom_site_fract_x
 _atom_site_fract_y
 _atom_site_fract_z
 _atom_site_occupancy
  K  K0  1  0.23160000  0.00900000  0.55780000  1
  K  K1  1  0.28230000  0.52200000  0.94490000  1
  K  K2  1  0.71770000  0.47800000  0.05510000  1
  K  K3  1  0.76840000  0.99100000  0.44220000  1
  Eu  Eu4  1  0.00183000  0.75874000  0.38251000  1
  Eu  Eu5  1  0.44208000  0.25877000  0.87204000  1
  Eu  Eu6  1  0.55792000  0.74123000  0.12796000  1
  Eu  Eu7  1  0.99817000  0.24126000  0.61749000  1
  H  H8  1  0.02930000  0.33270000  0.33220000  1
  H  H9  1  0.04660000  0.98580000  0.19080000  1
  H  H10  1  0.06380000  0.30490000  0.19140000  1
  H  H11  1  0.13590000  0.75290000  0.17820000  1
  H  H12  1  0.14780000  0.85020000  0.95360000  1
  H  H13  1  0.18320000  0.19410000  0.99350000  1
  H  H14  1  0.26700000  0.33970000  0.50670000  1
  H  H15  1  0.36120000  0.19360000  0.28950000  1
  H  H16  1  0.38420000  0.16480000  0.14770000  1
  H  H17  1  0.41190000  0.67730000  0.56330000  1
  H  H18  1  0.43580000  0.51700000  0.30790000  1
  H  H19  1  0.43590000  0.76090000  0.33780000  1
  H  H20  1  0.56410000  0.23910000  0.66220000  1
  H  H21  1  0.56420000  0.48300000  0.69210000  1
  H  H22  1  0.58810000  0.32270000  0.43670000  1
  H  H23  1  0.61580000  0.83520000  0.85230000  1
  H  H24  1  0.63880000  0.80640000  0.71050000  1
  H  H25  1  0.73300000  0.66030000  0.49330000  1
  H  H26  1  0.81680000  0.80590000  0.00650000  1
  H  H27  1  0.85220000  0.14980000  0.04640000  1
  H  H28  1  0.86410000  0.24710000  0.82180000  1
  H  H29  1  0.93620000  0.69510000  0.80860000  1
  H  H30  1  0.95340000  0.01420000  0.80920000  1
  H  H31  1  0.97070000  0.66730000  0.66780000  1
  C  C32  1  0.01330000  0.20170000  0.43840000  1
  C  C33  1  0.01660000  0.97500000  0.34090000  1
  C  C34  1  0.02620000  0.16210000  0.02860000  1
  C  C35  1  0.02840000  0.17750000  0.34710000  1
  C  C36  1  0.03180000  0.07570000  0.30430000  1
  C  C37  1  0.03480000  0.22730000  0.89920000  1
  C  C38  1  0.03650000  0.26360000  0.30440000  1
  C  C39  1  0.04640000  0.05620000  0.21980000  1
  C  C40  1  0.05530000  0.24750000  0.21940000  1
  C  C41  1  0.06060000  0.14110000  0.17950000  1
  C  C42  1  0.09530000  0.77260000  0.12560000  1
  C  C43  1  0.09580000  0.19410000  0.97730000  1
  C  C44  1  0.10270000  0.83320000  0.99190000  1
  C  C45  1  0.11270000  0.26390000  0.84290000  1
  C  C46  1  0.16460000  0.80280000  0.06990000  1
  C  C47  1  0.26810000  0.74190000  0.42780000  1
  C  C48  1  0.30460000  0.79460000  0.09140000  1
  C  C49  1  0.32440000  0.26200000  0.65250000  1
  C  C50  1  0.34930000  0.32360000  0.51780000  1
  C  C51  1  0.37950000  0.25160000  0.26430000  1
  C  C52  1  0.39170000  0.36000000  0.30940000  1
  C  C53  1  0.39630000  0.23550000  0.18030000  1
  C  C54  1  0.40250000  0.72010000  0.44650000  1
  C  C55  1  0.40370000  0.28400000  0.59280000  1
  C  C56  1  0.42010000  0.33910000  0.45910000  1
  C  C57  1  0.42550000  0.44640000  0.27540000  1
  C  C58  1  0.43020000  0.32050000  0.14340000  1
  C  C59  1  0.43970000  0.29960000  0.05280000  1
  C  C60  1  0.44420000  0.42760000  0.19210000  1
  C  C61  1  0.45760000  0.68490000  0.52330000  1
  C  C62  1  0.47230000  0.73630000  0.38880000  1
  C  C63  1  0.47570000  0.52760000  0.16030000  1
  C  C64  1  0.52430000  0.47240000  0.83970000  1
  C  C65  1  0.52770000  0.26370000  0.61120000  1
  C  C66  1  0.54240000  0.31510000  0.47670000  1
  C  C67  1  0.55580000  0.57240000  0.80790000  1
  C  C68  1  0.56030000  0.70040000  0.94720000  1
  C  C69  1  0.56980000  0.67950000  0.85660000  1
  C  C70  1  0.57450000  0.55360000  0.72460000  1
  C  C71  1  0.57990000  0.66090000  0.54090000  1
  C  C72  1  0.59630000  0.71600000  0.40720000  1
  C  C73  1  0.59750000  0.27990000  0.55350000  1
  C  C74  1  0.60370000  0.76450000  0.81970000  1
  C  C75  1  0.60830000  0.64000000  0.69060000  1
  C  C76  1  0.62050000  0.74840000  0.73570000  1
  C  C77  1  0.65070000  0.67640000  0.48220000  1
  C  C78  1  0.67560000  0.73800000  0.34750000  1
  C  C79  1  0.69540000  0.20540000  0.90860000  1
  C  C80  1  0.73190000  0.25810000  0.57220000  1
  C  C81  1  0.83540000  0.19720000  0.93010000  1
  C  C82  1  0.88730000  0.73610000  0.15710000  1
  C  C83  1  0.89730000  0.16680000  0.00810000  1
  C  C84  1  0.90420000  0.80590000  0.02270000  1
  C  C85  1  0.90470000  0.22740000  0.87440000  1
  C  C86  1  0.93940000  0.85890000  0.82050000  1
  C  C87  1  0.94470000  0.75250000  0.78060000  1
  C  C88  1  0.95360000  0.94380000  0.78020000  1
  C  C89  1  0.96350000  0.73640000  0.69560000  1
  C  C90  1  0.96520000  0.77270000  0.10080000  1
  C  C91  1  0.96820000  0.92430000  0.69570000  1
  C  C92  1  0.97160000  0.82250000  0.65290000  1
  C  C93  1  0.97380000  0.83790000  0.97140000  1
  C  C94  1  0.98340000  0.02500000  0.65910000  1
  C  C95  1  0.98670000  0.79830000  0.56160000  1
  O  O96  1  0.00690000  0.29770000  0.47460000  1
  O  O97  1  0.01190000  0.12330000  0.47950000  1
  O  O98  1  0.05500000  0.28350000  0.77010000  1
  O  O99  1  0.08890000  0.12050000  0.10030000  1
  O  O100  1  0.09550000  0.07550000  0.67040000  1
  O  O101  1  0.11230000  0.93670000  0.37620000  1
  O  O102  1  0.20220000  0.72460000  0.34620000  1
  O  O103  1  0.21440000  0.28800000  0.63560000  1
  O  O104  1  0.22080000  0.77680000  0.48770000  1
  O  O105  1  0.23070000  0.27680000  0.87330000  1
  O  O106  1  0.34690000  0.75620000  0.02850000  1
  O  O107  1  0.36430000  0.38440000  0.39010000  1
  O  O108  1  0.37280000  0.22330000  0.71630000  1
  O  O109  1  0.37470000  0.81860000  0.17050000  1
  O  O110  1  0.39610000  0.58240000  0.12990000  1
  O  O111  1  0.40380000  0.43760000  0.82850000  1
  O  O112  1  0.42260000  0.20140000  0.00890000  1
  O  O113  1  0.44400000  0.99800000  0.49600000  1
  O  O114  1  0.46390000  0.37640000  0.01730000  1
  O  O115  1  0.53610000  0.62360000  0.98270000  1
  O  O116  1  0.55600000  0.00200000  0.50400000  1
  O  O117  1  0.57740000  0.79860000  0.99110000  1
  O  O118  1  0.59620000  0.56240000  0.17150000  1
  O  O119  1  0.60390000  0.41760000  0.87010000  1
  O  O120  1  0.62530000  0.18140000  0.82950000  1
  O  O121  1  0.62720000  0.77670000  0.28370000  1
  O  O122  1  0.63570000  0.61560000  0.60990000  1
  O  O123  1  0.65310000  0.24380000  0.97150000  1
  O  O124  1  0.76930000  0.72320000  0.12670000  1
  O  O125  1  0.77920000  0.22320000  0.51230000  1
  O  O126  1  0.78560000  0.71200000  0.36440000  1
  O  O127  1  0.79780000  0.27540000  0.65380000  1
  O  O128  1  0.88770000  0.06330000  0.62380000  1
  O  O129  1  0.90450000  0.92450000  0.32960000  1
  O  O130  1  0.91110000  0.87950000  0.89970000  1
  O  O131  1  0.94500000  0.71650000  0.22990000  1
  O  O132  1  0.98810000  0.87670000  0.52050000  1
  O  O133  1  0.99310000  0.70230000  0.52540000  1
