# generated using pymatgen
data_Zn2H4C8O9
_symmetry_space_group_name_H-M   'P 1'
_cell_length_a   20.52230000
_cell_length_b   20.52230000
_cell_length_c   20.52230000
_cell_angle_alpha   90.00000000
_cell_angle_beta   90.00000000
_cell_angle_gamma   90.00000000
_symmetry_Int_Tables_number   1
_chemical_formula_structural   Zn2H4C8O9
_chemical_formula_sum   'Zn48 H96 C192 O216'
_cell_volume   8643.27031942
_cell_formula_units_Z   24
loop_
 _symmetry_equiv_pos_site_id
 _symmetry_equiv_pos_as_xyz
  1  'x, y, z'
loop_
 _atom_site_type_symbol
 _atom_site_label
 _atom_site_symmetry_multiplicity
 _atom_site_fract_x
 _atom_site_fract_y
 _atom_site_fract_z
 _atom_site_occupancy
  Zn  Zn0  1  0.00549000  0.56126000  0.27718000  1
  Zn  Zn1  1  0.00549000  0.93874000  0.77718000  1
  Zn  Zn2  1  0.06126000  0.22282000  0.99451000  1
  Zn  Zn3  1  0.06126000  0.27718000  0.49451000  1
  Zn  Zn4  1  0.10087000  0.64202000  0.16283000  1
  Zn  Zn5  1  0.10087000  0.85798000  0.66283000  1
  Zn  Zn6  1  0.14202000  0.16283000  0.39913000  1
  Zn  Zn7  1  0.14202000  0.33717000  0.89913000  1
  Zn  Zn8  1  0.16283000  0.10087000  0.64202000  1
  Zn  Zn9  1  0.16283000  0.39913000  0.14202000  1
  Zn  Zn10  1  0.22282000  0.50549000  0.56126000  1
  Zn  Zn11  1  0.22282000  0.99451000  0.06126000  1
  Zn  Zn12  1  0.27718000  0.00549000  0.56126000  1
  Zn  Zn13  1  0.27718000  0.49451000  0.06126000  1
  Zn  Zn14  1  0.33717000  0.60087000  0.64202000  1
  Zn  Zn15  1  0.33717000  0.89913000  0.14202000  1
  Zn  Zn16  1  0.35798000  0.66283000  0.39913000  1
  Zn  Zn17  1  0.35798000  0.83717000  0.89913000  1
  Zn  Zn18  1  0.39913000  0.14202000  0.16283000  1
  Zn  Zn19  1  0.39913000  0.35798000  0.66283000  1
  Zn  Zn20  1  0.43874000  0.72282000  0.99451000  1
  Zn  Zn21  1  0.43874000  0.77718000  0.49451000  1
  Zn  Zn22  1  0.49451000  0.06126000  0.27718000  1
  Zn  Zn23  1  0.49451000  0.43874000  0.77718000  1
  Zn  Zn24  1  0.50549000  0.56126000  0.22282000  1
  Zn  Zn25  1  0.50549000  0.93874000  0.72282000  1
  Zn  Zn26  1  0.56126000  0.22282000  0.50549000  1
  Zn  Zn27  1  0.56126000  0.27718000  0.00549000  1
  Zn  Zn28  1  0.60087000  0.64202000  0.33717000  1
  Zn  Zn29  1  0.60087000  0.85798000  0.83717000  1
  Zn  Zn30  1  0.64202000  0.16283000  0.10087000  1
  Zn  Zn31  1  0.64202000  0.33717000  0.60087000  1
  Zn  Zn32  1  0.66283000  0.10087000  0.85798000  1
  Zn  Zn33  1  0.66283000  0.39913000  0.35798000  1
  Zn  Zn34  1  0.72282000  0.50549000  0.93874000  1
  Zn  Zn35  1  0.72282000  0.99451000  0.43874000  1
  Zn  Zn36  1  0.77718000  0.00549000  0.93874000  1
  Zn  Zn37  1  0.77718000  0.49451000  0.43874000  1
  Zn  Zn38  1  0.83717000  0.60087000  0.85798000  1
  Zn  Zn39  1  0.83717000  0.89913000  0.35798000  1
  Zn  Zn40  1  0.85798000  0.66283000  0.10087000  1
  Zn  Zn41  1  0.85798000  0.83717000  0.60087000  1
  Zn  Zn42  1  0.89913000  0.14202000  0.33717000  1
  Zn  Zn43  1  0.89913000  0.35798000  0.83717000  1
  Zn  Zn44  1  0.93874000  0.72282000  0.50549000  1
  Zn  Zn45  1  0.93874000  0.77718000  0.00549000  1
  Zn  Zn46  1  0.99451000  0.06126000  0.22282000  1
  Zn  Zn47  1  0.99451000  0.43874000  0.72282000  1
  H  H48  1  0.00270000  0.16120000  0.80740000  1
  H  H49  1  0.00270000  0.33880000  0.30740000  1
  H  H50  1  0.00860000  0.69950000  0.79280000  1
  H  H51  1  0.00860000  0.80050000  0.29280000  1
  H  H52  1  0.11090000  0.23690000  0.19420000  1
  H  H53  1  0.11090000  0.26310000  0.69420000  1
  H  H54  1  0.12050000  0.12190000  0.79990000  1
  H  H55  1  0.12050000  0.37810000  0.29990000  1
  H  H56  1  0.12190000  0.70010000  0.62050000  1
  H  H57  1  0.12190000  0.79990000  0.12050000  1
  H  H58  1  0.16120000  0.69260000  0.50270000  1
  H  H59  1  0.16120000  0.80740000  0.00270000  1
  H  H60  1  0.19260000  0.50270000  0.33880000  1
  H  H61  1  0.19260000  0.99730000  0.83880000  1
  H  H62  1  0.19420000  0.11090000  0.23690000  1
  H  H63  1  0.19420000  0.38910000  0.73690000  1
  H  H64  1  0.19950000  0.70720000  0.99140000  1
  H  H65  1  0.19950000  0.79280000  0.49140000  1
  H  H66  1  0.20010000  0.62050000  0.37810000  1
  H  H67  1  0.20010000  0.87950000  0.87810000  1
  H  H68  1  0.20720000  0.50860000  0.80050000  1
  H  H69  1  0.20720000  0.99140000  0.30050000  1
  H  H70  1  0.23690000  0.19420000  0.11090000  1
  H  H71  1  0.23690000  0.30580000  0.61090000  1
  H  H72  1  0.26310000  0.69420000  0.11090000  1
  H  H73  1  0.26310000  0.80580000  0.61090000  1
  H  H74  1  0.29280000  0.00860000  0.80050000  1
  H  H75  1  0.29280000  0.49140000  0.30050000  1
  H  H76  1  0.29990000  0.12050000  0.37810000  1
  H  H77  1  0.29990000  0.37950000  0.87810000  1
  H  H78  1  0.30050000  0.20720000  0.99140000  1
  H  H79  1  0.30050000  0.29280000  0.49140000  1
  H  H80  1  0.30580000  0.61090000  0.23690000  1
  H  H81  1  0.30580000  0.88910000  0.73690000  1
  H  H82  1  0.30740000  0.00270000  0.33880000  1
  H  H83  1  0.30740000  0.49730000  0.83880000  1
  H  H84  1  0.33880000  0.19260000  0.50270000  1
  H  H85  1  0.33880000  0.30740000  0.00270000  1
  H  H86  1  0.37810000  0.20010000  0.62050000  1
  H  H87  1  0.37810000  0.29990000  0.12050000  1
  H  H88  1  0.37950000  0.62190000  0.79990000  1
  H  H89  1  0.37950000  0.87810000  0.29990000  1
  H  H90  1  0.38910000  0.73690000  0.19420000  1
  H  H91  1  0.38910000  0.76310000  0.69420000  1
  H  H92  1  0.49140000  0.19950000  0.79280000  1
  H  H93  1  0.49140000  0.30050000  0.29280000  1
  H  H94  1  0.49730000  0.66120000  0.80740000  1
  H  H95  1  0.49730000  0.83880000  0.30740000  1
  H  H96  1  0.50270000  0.16120000  0.69260000  1
  H  H97  1  0.50270000  0.33880000  0.19260000  1
  H  H98  1  0.50860000  0.69950000  0.70720000  1
  H  H99  1  0.50860000  0.80050000  0.20720000  1
  H  H100  1  0.61090000  0.23690000  0.30580000  1
  H  H101  1  0.61090000  0.26310000  0.80580000  1
  H  H102  1  0.62050000  0.12190000  0.70010000  1
  H  H103  1  0.62050000  0.37810000  0.20010000  1
  H  H104  1  0.62190000  0.70010000  0.87950000  1
  H  H105  1  0.62190000  0.79990000  0.37950000  1
  H  H106  1  0.66120000  0.69260000  0.99730000  1
  H  H107  1  0.66120000  0.80740000  0.49730000  1
  H  H108  1  0.69260000  0.50270000  0.16120000  1
  H  H109  1  0.69260000  0.99730000  0.66120000  1
  H  H110  1  0.69420000  0.11090000  0.26310000  1
  H  H111  1  0.69420000  0.38910000  0.76310000  1
  H  H112  1  0.69950000  0.70720000  0.50860000  1
  H  H113  1  0.69950000  0.79280000  0.00860000  1
  H  H114  1  0.70010000  0.62050000  0.12190000  1
  H  H115  1  0.70010000  0.87950000  0.62190000  1
  H  H116  1  0.70720000  0.50860000  0.69950000  1
  H  H117  1  0.70720000  0.99140000  0.19950000  1
  H  H118  1  0.73690000  0.19420000  0.38910000  1
  H  H119  1  0.73690000  0.30580000  0.88910000  1
  H  H120  1  0.76310000  0.69420000  0.38910000  1
  H  H121  1  0.76310000  0.80580000  0.88910000  1
  H  H122  1  0.79280000  0.00860000  0.69950000  1
  H  H123  1  0.79280000  0.49140000  0.19950000  1
  H  H124  1  0.79990000  0.12050000  0.12190000  1
  H  H125  1  0.79990000  0.37950000  0.62190000  1
  H  H126  1  0.80050000  0.20720000  0.50860000  1
  H  H127  1  0.80050000  0.29280000  0.00860000  1
  H  H128  1  0.80580000  0.61090000  0.26310000  1
  H  H129  1  0.80580000  0.88910000  0.76310000  1
  H  H130  1  0.80740000  0.00270000  0.16120000  1
  H  H131  1  0.80740000  0.49730000  0.66120000  1
  H  H132  1  0.83880000  0.19260000  0.99730000  1
  H  H133  1  0.83880000  0.30740000  0.49730000  1
  H  H134  1  0.87810000  0.20010000  0.87950000  1
  H  H135  1  0.87810000  0.29990000  0.37950000  1
  H  H136  1  0.87950000  0.62190000  0.70010000  1
  H  H137  1  0.87950000  0.87810000  0.20010000  1
  H  H138  1  0.88910000  0.73690000  0.30580000  1
  H  H139  1  0.88910000  0.76310000  0.80580000  1
  H  H140  1  0.99140000  0.19950000  0.70720000  1
  H  H141  1  0.99140000  0.30050000  0.20720000  1
  H  H142  1  0.99730000  0.66120000  0.69260000  1
  H  H143  1  0.99730000  0.83880000  0.19260000  1
  C  C144  1  0.00402000  0.70934000  0.25340000  1
  C  C145  1  0.00402000  0.79066000  0.75340000  1
  C  C146  1  0.02475000  0.22376000  0.73119000  1
  C  C147  1  0.02475000  0.27624000  0.23119000  1
  C  C148  1  0.04158000  0.18362000  0.79124000  1
  C  C149  1  0.04158000  0.31638000  0.29124000  1
  C  C150  1  0.06111000  0.07135000  0.73710000  1
  C  C151  1  0.06111000  0.42865000  0.23710000  1
  C  C152  1  0.07135000  0.73710000  0.06111000  1
  C  C153  1  0.07135000  0.76290000  0.56111000  1
  C  C154  1  0.07383000  0.20926000  0.61793000  1
  C  C155  1  0.07383000  0.29074000  0.11793000  1
  C  C156  1  0.07436000  0.22124000  0.84659000  1
  C  C157  1  0.07436000  0.27876000  0.34659000  1
  C  C158  1  0.08758000  0.22170000  0.68962000  1
  C  C159  1  0.08758000  0.27830000  0.18962000  1
  C  C160  1  0.09070000  0.13384000  0.76450000  1
  C  C161  1  0.09070000  0.36616000  0.26450000  1
  C  C162  1  0.11793000  0.07383000  0.29074000  1
  C  C163  1  0.11793000  0.42617000  0.79074000  1
  C  C164  1  0.13384000  0.73550000  0.59070000  1
  C  C165  1  0.13384000  0.76450000  0.09070000  1
  C  C166  1  0.15341000  0.57436000  0.27876000  1
  C  C167  1  0.15341000  0.92564000  0.77876000  1
  C  C168  1  0.18362000  0.70876000  0.54158000  1
  C  C169  1  0.18362000  0.79124000  0.04158000  1
  C  C170  1  0.18962000  0.08758000  0.27830000  1
  C  C171  1  0.18962000  0.41242000  0.77830000  1
  C  C172  1  0.20876000  0.54158000  0.31638000  1
  C  C173  1  0.20876000  0.95842000  0.81638000  1
  C  C174  1  0.20926000  0.61793000  0.07383000  1
  C  C175  1  0.20926000  0.88207000  0.57383000  1
  C  C176  1  0.20934000  0.24660000  0.99598000  1
  C  C177  1  0.20934000  0.25340000  0.49598000  1
  C  C178  1  0.22124000  0.65341000  0.57436000  1
  C  C179  1  0.22124000  0.84659000  0.07436000  1
  C  C180  1  0.22170000  0.68962000  0.08758000  1
  C  C181  1  0.22170000  0.81038000  0.58758000  1
  C  C182  1  0.22376000  0.73119000  0.02475000  1
  C  C183  1  0.22376000  0.76881000  0.52475000  1
  C  C184  1  0.23119000  0.02475000  0.27624000  1
  C  C185  1  0.23119000  0.47525000  0.77624000  1
  C  C186  1  0.23550000  0.59070000  0.36616000  1
  C  C187  1  0.23550000  0.90930000  0.86616000  1
  C  C188  1  0.23710000  0.06111000  0.42865000  1
  C  C189  1  0.23710000  0.43889000  0.92865000  1
  C  C190  1  0.24660000  0.50402000  0.70934000  1
  C  C191  1  0.24660000  0.99598000  0.20934000  1
  C  C192  1  0.25340000  0.00402000  0.70934000  1
  C  C193  1  0.25340000  0.49598000  0.20934000  1
  C  C194  1  0.26290000  0.56111000  0.42865000  1
  C  C195  1  0.26290000  0.93889000  0.92865000  1
  C  C196  1  0.26450000  0.09070000  0.36616000  1
  C  C197  1  0.26450000  0.40930000  0.86616000  1
  C  C198  1  0.26881000  0.52475000  0.27624000  1
  C  C199  1  0.26881000  0.97525000  0.77624000  1
  C  C200  1  0.27624000  0.23119000  0.02475000  1
  C  C201  1  0.27624000  0.26881000  0.52475000  1
  C  C202  1  0.27830000  0.18962000  0.08758000  1
  C  C203  1  0.27830000  0.31038000  0.58758000  1
  C  C204  1  0.27876000  0.15341000  0.57436000  1
  C  C205  1  0.27876000  0.34659000  0.07436000  1
  C  C206  1  0.29066000  0.74660000  0.99598000  1
  C  C207  1  0.29066000  0.75340000  0.49598000  1
  C  C208  1  0.29074000  0.11793000  0.07383000  1
  C  C209  1  0.29074000  0.38207000  0.57383000  1
  C  C210  1  0.29124000  0.04158000  0.31638000  1
  C  C211  1  0.29124000  0.45842000  0.81638000  1
  C  C212  1  0.31038000  0.58758000  0.27830000  1
  C  C213  1  0.31038000  0.91242000  0.77830000  1
  C  C214  1  0.31638000  0.20876000  0.54158000  1
  C  C215  1  0.31638000  0.29124000  0.04158000  1
  C  C216  1  0.34659000  0.07436000  0.27876000  1
  C  C217  1  0.34659000  0.42564000  0.77876000  1
  C  C218  1  0.36616000  0.23550000  0.59070000  1
  C  C219  1  0.36616000  0.26450000  0.09070000  1
  C  C220  1  0.38207000  0.57383000  0.29074000  1
  C  C221  1  0.38207000  0.92617000  0.79074000  1
  C  C222  1  0.40930000  0.63384000  0.76450000  1
  C  C223  1  0.40930000  0.86616000  0.26450000  1
  C  C224  1  0.41242000  0.72170000  0.68962000  1
  C  C225  1  0.41242000  0.77830000  0.18962000  1
  C  C226  1  0.42564000  0.72124000  0.84659000  1
  C  C227  1  0.42564000  0.77876000  0.34659000  1
  C  C228  1  0.42617000  0.70926000  0.61793000  1
  C  C229  1  0.42617000  0.79074000  0.11793000  1
  C  C230  1  0.42865000  0.23710000  0.06111000  1
  C  C231  1  0.42865000  0.26290000  0.56111000  1
  C  C232  1  0.43889000  0.57135000  0.73710000  1
  C  C233  1  0.43889000  0.92865000  0.23710000  1
  C  C234  1  0.45842000  0.68362000  0.79124000  1
  C  C235  1  0.45842000  0.81638000  0.29124000  1
  C  C236  1  0.47525000  0.72376000  0.73119000  1
  C  C237  1  0.47525000  0.77624000  0.23119000  1
  C  C238  1  0.49598000  0.20934000  0.25340000  1
  C  C239  1  0.49598000  0.29066000  0.75340000  1
  C  C240  1  0.50402000  0.70934000  0.24660000  1
  C  C241  1  0.50402000  0.79066000  0.74660000  1
  C  C242  1  0.52475000  0.22376000  0.76881000  1
  C  C243  1  0.52475000  0.27624000  0.26881000  1
  C  C244  1  0.54158000  0.18362000  0.70876000  1
  C  C245  1  0.54158000  0.31638000  0.20876000  1
  C  C246  1  0.56111000  0.07135000  0.76290000  1
  C  C247  1  0.56111000  0.42865000  0.26290000  1
  C  C248  1  0.57135000  0.73710000  0.43889000  1
  C  C249  1  0.57135000  0.76290000  0.93889000  1
  C  C250  1  0.57383000  0.20926000  0.88207000  1
  C  C251  1  0.57383000  0.29074000  0.38207000  1
  C  C252  1  0.57436000  0.22124000  0.65341000  1
  C  C253  1  0.57436000  0.27876000  0.15341000  1
  C  C254  1  0.58758000  0.22170000  0.81038000  1
  C  C255  1  0.58758000  0.27830000  0.31038000  1
  C  C256  1  0.59070000  0.13384000  0.73550000  1
  C  C257  1  0.59070000  0.36616000  0.23550000  1
  C  C258  1  0.61793000  0.07383000  0.20926000  1
  C  C259  1  0.61793000  0.42617000  0.70926000  1
  C  C260  1  0.63384000  0.73550000  0.90930000  1
  C  C261  1  0.63384000  0.76450000  0.40930000  1
  C  C262  1  0.65341000  0.57436000  0.22124000  1
  C  C263  1  0.65341000  0.92564000  0.72124000  1
  C  C264  1  0.68362000  0.70876000  0.95842000  1
  C  C265  1  0.68362000  0.79124000  0.45842000  1
  C  C266  1  0.68962000  0.08758000  0.22170000  1
  C  C267  1  0.68962000  0.41242000  0.72170000  1
  C  C268  1  0.70876000  0.54158000  0.18362000  1
  C  C269  1  0.70876000  0.95842000  0.68362000  1
  C  C270  1  0.70926000  0.61793000  0.42617000  1
  C  C271  1  0.70926000  0.88207000  0.92617000  1
  C  C272  1  0.70934000  0.24660000  0.50402000  1
  C  C273  1  0.70934000  0.25340000  0.00402000  1
  C  C274  1  0.72124000  0.65341000  0.92564000  1
  C  C275  1  0.72124000  0.84659000  0.42564000  1
  C  C276  1  0.72170000  0.68962000  0.41242000  1
  C  C277  1  0.72170000  0.81038000  0.91242000  1
  C  C278  1  0.72376000  0.73119000  0.47525000  1
  C  C279  1  0.72376000  0.76881000  0.97525000  1
  C  C280  1  0.73119000  0.02475000  0.22376000  1
  C  C281  1  0.73119000  0.47525000  0.72376000  1
  C  C282  1  0.73550000  0.59070000  0.13384000  1
  C  C283  1  0.73550000  0.90930000  0.63384000  1
  C  C284  1  0.73710000  0.06111000  0.07135000  1
  C  C285  1  0.73710000  0.43889000  0.57135000  1
  C  C286  1  0.74660000  0.50402000  0.79066000  1
  C  C287  1  0.74660000  0.99598000  0.29066000  1
  C  C288  1  0.75340000  0.00402000  0.79066000  1
  C  C289  1  0.75340000  0.49598000  0.29066000  1
  C  C290  1  0.76290000  0.56111000  0.07135000  1
  C  C291  1  0.76290000  0.93889000  0.57135000  1
  C  C292  1  0.76450000  0.09070000  0.13384000  1
  C  C293  1  0.76450000  0.40930000  0.63384000  1
  C  C294  1  0.76881000  0.52475000  0.22376000  1
  C  C295  1  0.76881000  0.97525000  0.72376000  1
  C  C296  1  0.77624000  0.23119000  0.47525000  1
  C  C297  1  0.77624000  0.26881000  0.97525000  1
  C  C298  1  0.77830000  0.18962000  0.41242000  1
  C  C299  1  0.77830000  0.31038000  0.91242000  1
  C  C300  1  0.77876000  0.15341000  0.92564000  1
  C  C301  1  0.77876000  0.34659000  0.42564000  1
  C  C302  1  0.79066000  0.74660000  0.50402000  1
  C  C303  1  0.79066000  0.75340000  0.00402000  1
  C  C304  1  0.79074000  0.11793000  0.42617000  1
  C  C305  1  0.79074000  0.38207000  0.92617000  1
  C  C306  1  0.79124000  0.04158000  0.18362000  1
  C  C307  1  0.79124000  0.45842000  0.68362000  1
  C  C308  1  0.81038000  0.58758000  0.22170000  1
  C  C309  1  0.81038000  0.91242000  0.72170000  1
  C  C310  1  0.81638000  0.20876000  0.95842000  1
  C  C311  1  0.81638000  0.29124000  0.45842000  1
  C  C312  1  0.84659000  0.07436000  0.22124000  1
  C  C313  1  0.84659000  0.42564000  0.72124000  1
  C  C314  1  0.86616000  0.23550000  0.90930000  1
  C  C315  1  0.86616000  0.26450000  0.40930000  1
  C  C316  1  0.88207000  0.57383000  0.20926000  1
  C  C317  1  0.88207000  0.92617000  0.70926000  1
  C  C318  1  0.90930000  0.63384000  0.73550000  1
  C  C319  1  0.90930000  0.86616000  0.23550000  1
  C  C320  1  0.91242000  0.72170000  0.81038000  1
  C  C321  1  0.91242000  0.77830000  0.31038000  1
  C  C322  1  0.92564000  0.72124000  0.65341000  1
  C  C323  1  0.92564000  0.77876000  0.15341000  1
  C  C324  1  0.92617000  0.70926000  0.88207000  1
  C  C325  1  0.92617000  0.79074000  0.38207000  1
  C  C326  1  0.92865000  0.23710000  0.43889000  1
  C  C327  1  0.92865000  0.26290000  0.93889000  1
  C  C328  1  0.93889000  0.57135000  0.76290000  1
  C  C329  1  0.93889000  0.92865000  0.26290000  1
  C  C330  1  0.95842000  0.68362000  0.70876000  1
  C  C331  1  0.95842000  0.81638000  0.20876000  1
  C  C332  1  0.97525000  0.72376000  0.76881000  1
  C  C333  1  0.97525000  0.77624000  0.26881000  1
  C  C334  1  0.99598000  0.20934000  0.24660000  1
  C  C335  1  0.99598000  0.29066000  0.74660000  1
  O  O336  1  0.01853000  0.15979000  0.21905000  1
  O  O337  1  0.01853000  0.34021000  0.71905000  1
  O  O338  1  0.02193000  0.04195000  0.77255000  1
  O  O339  1  0.02193000  0.45805000  0.27255000  1
  O  O340  1  0.04195000  0.72745000  0.52193000  1
  O  O341  1  0.04195000  0.77255000  0.02193000  1
  O  O342  1  0.04304000  0.24543000  0.08955000  1
  O  O343  1  0.04304000  0.25457000  0.58955000  1
  O  O344  1  0.05090000  0.71053000  0.21397000  1
  O  O345  1  0.05090000  0.78947000  0.71397000  1
  O  O346  1  0.05224000  0.68174000  0.07961000  1
  O  O347  1  0.05224000  0.81826000  0.57961000  1
  O  O348  1  0.07060000  0.19581000  0.90092000  1
  O  O349  1  0.07060000  0.30419000  0.40092000  1
  O  O350  1  0.07961000  0.05224000  0.68174000  1
  O  O351  1  0.07961000  0.44776000  0.18174000  1
  O  O352  1  0.08955000  0.04304000  0.24543000  1
  O  O353  1  0.08955000  0.45696000  0.74543000  1
  O  O354  1  0.09155000  0.09259000  0.34190000  1
  O  O355  1  0.09155000  0.40741000  0.84190000  1
  O  O356  1  0.09259000  0.15810000  0.59155000  1
  O  O357  1  0.09259000  0.34190000  0.09155000  1
  O  O358  1  0.09908000  0.57060000  0.30419000  1
  O  O359  1  0.09908000  0.92940000  0.80419000  1
  O  O360  1  0.10451000  0.22765000  0.33361000  1
  O  O361  1  0.10451000  0.27235000  0.83361000  1
  O  O362  1  0.12742000  0.16924000  0.71608000  1
  O  O363  1  0.12742000  0.33076000  0.21608000  1
  O  O364  1  0.15810000  0.59155000  0.09259000  1
  O  O365  1  0.15810000  0.90845000  0.59259000  1
  O  O366  1  0.15979000  0.21905000  0.01853000  1
  O  O367  1  0.15979000  0.28095000  0.51853000  1
  O  O368  1  0.16639000  0.60451000  0.22765000  1
  O  O369  1  0.16639000  0.89549000  0.72765000  1
  O  O370  1  0.16924000  0.71608000  0.12742000  1
  O  O371  1  0.16924000  0.78392000  0.62742000  1
  O  O372  1  0.18174000  0.07961000  0.44776000  1
  O  O373  1  0.18174000  0.42039000  0.94776000  1
  O  O374  1  0.19581000  0.59908000  0.57060000  1
  O  O375  1  0.19581000  0.90092000  0.07060000  1
  O  O376  1  0.21053000  0.21397000  0.44910000  1
  O  O377  1  0.21053000  0.28603000  0.94910000  1
  O  O378  1  0.21397000  0.05090000  0.71053000  1
  O  O379  1  0.21397000  0.44910000  0.21053000  1
  O  O380  1  0.21608000  0.12742000  0.33076000  1
  O  O381  1  0.21608000  0.37258000  0.83076000  1
  O  O382  1  0.21905000  0.01853000  0.15979000  1
  O  O383  1  0.21905000  0.48147000  0.65979000  1
  O  O384  1  0.22745000  0.52193000  0.45805000  1
  O  O385  1  0.22745000  0.97807000  0.95805000  1
  O  O386  1  0.22765000  0.16639000  0.60451000  1
  O  O387  1  0.22765000  0.33361000  0.10451000  1
  O  O388  1  0.24543000  0.08955000  0.04304000  1
  O  O389  1  0.24543000  0.41045000  0.54304000  1
  O  O390  1  0.25457000  0.58955000  0.04304000  1
  O  O391  1  0.25457000  0.91045000  0.54304000  1
  O  O392  1  0.27235000  0.66639000  0.60451000  1
  O  O393  1  0.27235000  0.83361000  0.10451000  1
  O  O394  1  0.27255000  0.02193000  0.45805000  1
  O  O395  1  0.27255000  0.47807000  0.95805000  1
  O  O396  1  0.28095000  0.51853000  0.15979000  1
  O  O397  1  0.28095000  0.98147000  0.65979000  1
  O  O398  1  0.28392000  0.62742000  0.33076000  1
  O  O399  1  0.28392000  0.87258000  0.83076000  1
  O  O400  1  0.28603000  0.55090000  0.71053000  1
  O  O401  1  0.28603000  0.94910000  0.21053000  1
  O  O402  1  0.28947000  0.71397000  0.44910000  1
  O  O403  1  0.28947000  0.78603000  0.94910000  1
  O  O404  1  0.30419000  0.09908000  0.57060000  1
  O  O405  1  0.30419000  0.40092000  0.07060000  1
  O  O406  1  0.31826000  0.57961000  0.44776000  1
  O  O407  1  0.31826000  0.92039000  0.94776000  1
  O  O408  1  0.33076000  0.21608000  0.12742000  1
  O  O409  1  0.33076000  0.28392000  0.62742000  1
  O  O410  1  0.33361000  0.10451000  0.22765000  1
  O  O411  1  0.33361000  0.39549000  0.72765000  1
  O  O412  1  0.34021000  0.71905000  0.01853000  1
  O  O413  1  0.34021000  0.78095000  0.51853000  1
  O  O414  1  0.34190000  0.09155000  0.09259000  1
  O  O415  1  0.34190000  0.40845000  0.59259000  1
  O  O416  1  0.37258000  0.66924000  0.71608000  1
  O  O417  1  0.37258000  0.83076000  0.21608000  1
  O  O418  1  0.39549000  0.72765000  0.33361000  1
  O  O419  1  0.39549000  0.77235000  0.83361000  1
  O  O420  1  0.40092000  0.07060000  0.30419000  1
  O  O421  1  0.40092000  0.42940000  0.80419000  1
  O  O422  1  0.40741000  0.65810000  0.59155000  1
  O  O423  1  0.40741000  0.84190000  0.09155000  1
  O  O424  1  0.40845000  0.59259000  0.34190000  1
  O  O425  1  0.40845000  0.90741000  0.84190000  1
  O  O426  1  0.41045000  0.54304000  0.24543000  1
  O  O427  1  0.41045000  0.95696000  0.74543000  1
  O  O428  1  0.42039000  0.55224000  0.68174000  1
  O  O429  1  0.42039000  0.94776000  0.18174000  1
  O  O430  1  0.42940000  0.69581000  0.90092000  1
  O  O431  1  0.42940000  0.80419000  0.40092000  1
  O  O432  1  0.44776000  0.18174000  0.07961000  1
  O  O433  1  0.44776000  0.31826000  0.57961000  1
  O  O434  1  0.44910000  0.21053000  0.21397000  1
  O  O435  1  0.44910000  0.28947000  0.71397000  1
  O  O436  1  0.45696000  0.74543000  0.08955000  1
  O  O437  1  0.45696000  0.75457000  0.58955000  1
  O  O438  1  0.45805000  0.22745000  0.52193000  1
  O  O439  1  0.45805000  0.27255000  0.02193000  1
  O  O440  1  0.47807000  0.54195000  0.77255000  1
  O  O441  1  0.47807000  0.95805000  0.27255000  1
  O  O442  1  0.48147000  0.65979000  0.21905000  1
  O  O443  1  0.48147000  0.84021000  0.71905000  1
  O  O444  1  0.51853000  0.15979000  0.28095000  1
  O  O445  1  0.51853000  0.34021000  0.78095000  1
  O  O446  1  0.52193000  0.04195000  0.72745000  1
  O  O447  1  0.52193000  0.45805000  0.22745000  1
  O  O448  1  0.54195000  0.72745000  0.97807000  1
  O  O449  1  0.54195000  0.77255000  0.47807000  1
  O  O450  1  0.54304000  0.24543000  0.41045000  1
  O  O451  1  0.54304000  0.25457000  0.91045000  1
  O  O452  1  0.55090000  0.71053000  0.28603000  1
  O  O453  1  0.55090000  0.78947000  0.78603000  1
  O  O454  1  0.55224000  0.68174000  0.42039000  1
  O  O455  1  0.55224000  0.81826000  0.92039000  1
  O  O456  1  0.57060000  0.19581000  0.59908000  1
  O  O457  1  0.57060000  0.30419000  0.09908000  1
  O  O458  1  0.57961000  0.05224000  0.81826000  1
  O  O459  1  0.57961000  0.44776000  0.31826000  1
  O  O460  1  0.58955000  0.04304000  0.25457000  1
  O  O461  1  0.58955000  0.45696000  0.75457000  1
  O  O462  1  0.59155000  0.09259000  0.15810000  1
  O  O463  1  0.59155000  0.40741000  0.65810000  1
  O  O464  1  0.59259000  0.15810000  0.90845000  1
  O  O465  1  0.59259000  0.34190000  0.40845000  1
  O  O466  1  0.59908000  0.57060000  0.19581000  1
  O  O467  1  0.59908000  0.92940000  0.69581000  1
  O  O468  1  0.60451000  0.22765000  0.16639000  1
  O  O469  1  0.60451000  0.27235000  0.66639000  1
  O  O470  1  0.62742000  0.16924000  0.78392000  1
  O  O471  1  0.62742000  0.33076000  0.28392000  1
  O  O472  1  0.65810000  0.59155000  0.40741000  1
  O  O473  1  0.65810000  0.90845000  0.90741000  1
  O  O474  1  0.65979000  0.21905000  0.48147000  1
  O  O475  1  0.65979000  0.28095000  0.98147000  1
  O  O476  1  0.66639000  0.60451000  0.27235000  1
  O  O477  1  0.66639000  0.89549000  0.77235000  1
  O  O478  1  0.66924000  0.71608000  0.37258000  1
  O  O479  1  0.66924000  0.78392000  0.87258000  1
  O  O480  1  0.68174000  0.07961000  0.05224000  1
  O  O481  1  0.68174000  0.42039000  0.55224000  1
  O  O482  1  0.69581000  0.59908000  0.92940000  1
  O  O483  1  0.69581000  0.90092000  0.42940000  1
  O  O484  1  0.71053000  0.21397000  0.05090000  1
  O  O485  1  0.71053000  0.28603000  0.55090000  1
  O  O486  1  0.71397000  0.05090000  0.78947000  1
  O  O487  1  0.71397000  0.44910000  0.28947000  1
  O  O488  1  0.71608000  0.12742000  0.16924000  1
  O  O489  1  0.71608000  0.37258000  0.66924000  1
  O  O490  1  0.71905000  0.01853000  0.34021000  1
  O  O491  1  0.71905000  0.48147000  0.84021000  1
  O  O492  1  0.72745000  0.52193000  0.04195000  1
  O  O493  1  0.72745000  0.97807000  0.54195000  1
  O  O494  1  0.72765000  0.16639000  0.89549000  1
  O  O495  1  0.72765000  0.33361000  0.39549000  1
  O  O496  1  0.74543000  0.08955000  0.45696000  1
  O  O497  1  0.74543000  0.41045000  0.95696000  1
  O  O498  1  0.75457000  0.58955000  0.45696000  1
  O  O499  1  0.75457000  0.91045000  0.95696000  1
  O  O500  1  0.77235000  0.66639000  0.89549000  1
  O  O501  1  0.77235000  0.83361000  0.39549000  1
  O  O502  1  0.77255000  0.02193000  0.04195000  1
  O  O503  1  0.77255000  0.47807000  0.54195000  1
  O  O504  1  0.78095000  0.51853000  0.34021000  1
  O  O505  1  0.78095000  0.98147000  0.84021000  1
  O  O506  1  0.78392000  0.62742000  0.16924000  1
  O  O507  1  0.78392000  0.87258000  0.66924000  1
  O  O508  1  0.78603000  0.55090000  0.78947000  1
  O  O509  1  0.78603000  0.94910000  0.28947000  1
  O  O510  1  0.78947000  0.71397000  0.05090000  1
  O  O511  1  0.78947000  0.78603000  0.55090000  1
  O  O512  1  0.80419000  0.09908000  0.92940000  1
  O  O513  1  0.80419000  0.40092000  0.42940000  1
  O  O514  1  0.81826000  0.57961000  0.05224000  1
  O  O515  1  0.81826000  0.92039000  0.55224000  1
  O  O516  1  0.83076000  0.21608000  0.37258000  1
  O  O517  1  0.83076000  0.28392000  0.87258000  1
  O  O518  1  0.83361000  0.10451000  0.27235000  1
  O  O519  1  0.83361000  0.39549000  0.77235000  1
  O  O520  1  0.84021000  0.71905000  0.48147000  1
  O  O521  1  0.84021000  0.78095000  0.98147000  1
  O  O522  1  0.84190000  0.09155000  0.40741000  1
  O  O523  1  0.84190000  0.40845000  0.90741000  1
  O  O524  1  0.87258000  0.66924000  0.78392000  1
  O  O525  1  0.87258000  0.83076000  0.28392000  1
  O  O526  1  0.89549000  0.72765000  0.16639000  1
  O  O527  1  0.89549000  0.77235000  0.66639000  1
  O  O528  1  0.90092000  0.07060000  0.19581000  1
  O  O529  1  0.90092000  0.42940000  0.69581000  1
  O  O530  1  0.90741000  0.65810000  0.90845000  1
  O  O531  1  0.90741000  0.84190000  0.40845000  1
  O  O532  1  0.90845000  0.59259000  0.15810000  1
  O  O533  1  0.90845000  0.90741000  0.65810000  1
  O  O534  1  0.91045000  0.54304000  0.25457000  1
  O  O535  1  0.91045000  0.95696000  0.75457000  1
  O  O536  1  0.92039000  0.55224000  0.81826000  1
  O  O537  1  0.92039000  0.94776000  0.31826000  1
  O  O538  1  0.92940000  0.69581000  0.59908000  1
  O  O539  1  0.92940000  0.80419000  0.09908000  1
  O  O540  1  0.94776000  0.18174000  0.42039000  1
  O  O541  1  0.94776000  0.31826000  0.92039000  1
  O  O542  1  0.94910000  0.21053000  0.28603000  1
  O  O543  1  0.94910000  0.28947000  0.78603000  1
  O  O544  1  0.95696000  0.74543000  0.41045000  1
  O  O545  1  0.95696000  0.75457000  0.91045000  1
  O  O546  1  0.95805000  0.22745000  0.97807000  1
  O  O547  1  0.95805000  0.27255000  0.47807000  1
  O  O548  1  0.97807000  0.54195000  0.72745000  1
  O  O549  1  0.97807000  0.95805000  0.22745000  1
  O  O550  1  0.98147000  0.65979000  0.28095000  1
  O  O551  1  0.98147000  0.84021000  0.78095000  1
