# generated using pymatgen
data_CdH10C14NO4
_symmetry_space_group_name_H-M   'P 1'
_cell_length_a   9.75000000
_cell_length_b   9.88000000
_cell_length_c   9.88000000
_cell_angle_alpha   90.36000000
_cell_angle_beta   92.73000000
_cell_angle_gamma   117.33000000
_symmetry_Int_Tables_number   1
_chemical_formula_structural   CdH10C14NO4
_chemical_formula_sum   'Cd2 H20 C28 N2 O8'
_cell_volume   844.11958382
_cell_formula_units_Z   2
loop_
 _symmetry_equiv_pos_site_id
 _symmetry_equiv_pos_as_xyz
  1  'x, y, z'
loop_
 _atom_site_type_symbol
 _atom_site_label
 _atom_site_symmetry_multiplicity
 _atom_site_fract_x
 _atom_site_fract_y
 _atom_site_fract_z
 _atom_site_occupancy
  Cd  Cd0  1  0.44337000  0.27475000  0.97813000  1
  Cd  Cd1  1  0.55663000  0.72525000  0.02187000  1
  H  H2  1  0.00310000  0.67360000  0.16040000  1
  H  H3  1  0.06540000  0.65850000  0.45730000  1
  H  H4  1  0.10600000  0.50860000  0.40750000  1
  H  H5  1  0.15520000  0.76650000  0.69330000  1
  H  H6  1  0.20690000  0.60000000  0.17030000  1
  H  H7  1  0.29800000  0.45730000  0.55670000  1
  H  H8  1  0.32630000  0.82020000  0.87080000  1
  H  H9  1  0.32770000  0.11230000  0.51780000  1
  H  H10  1  0.33770000  0.98730000  0.31280000  1
  H  H11  1  0.45710000  0.52190000  0.74210000  1
  H  H12  1  0.54290000  0.47810000  0.25790000  1
  H  H13  1  0.66230000  0.01270000  0.68720000  1
  H  H14  1  0.67230000  0.88770000  0.48220000  1
  H  H15  1  0.67370000  0.17980000  0.12920000  1
  H  H16  1  0.70200000  0.54270000  0.44330000  1
  H  H17  1  0.79310000  0.40000000  0.82970000  1
  H  H18  1  0.84480000  0.23350000  0.30670000  1
  H  H19  1  0.89400000  0.49140000  0.59250000  1
  H  H20  1  0.93460000  0.34150000  0.54270000  1
  H  H21  1  0.99690000  0.32640000  0.83960000  1
  C  C22  1  0.01000000  0.61080000  0.09250000  1
  C  C23  1  0.08070000  0.56000000  0.48040000  1
  C  C24  1  0.11100000  0.44830000  0.00690000  1
  C  C25  1  0.11970000  0.55850000  0.09890000  1
  C  C26  1  0.19830000  0.60310000  0.59950000  1
  C  C27  1  0.21320000  0.71170000  0.69520000  1
  C  C28  1  0.23470000  0.39720000  0.01190000  1
  C  C29  1  0.29080000  0.53250000  0.61820000  1
  C  C30  1  0.31790000  0.74530000  0.80580000  1
  C  C31  1  0.39410000  0.57160000  0.73090000  1
  C  C32  1  0.40110000  0.99080000  0.39180000  1
  C  C33  1  0.40210000  0.06470000  0.51180000  1
  C  C34  1  0.49490000  0.14930000  0.75230000  1
  C  C35  1  0.49840000  0.92530000  0.37900000  1
  C  C36  1  0.50160000  0.07470000  0.62100000  1
  C  C37  1  0.50510000  0.85070000  0.24770000  1
  C  C38  1  0.59790000  0.93530000  0.48820000  1
  C  C39  1  0.59890000  0.00920000  0.60820000  1
  C  C40  1  0.60590000  0.42840000  0.26910000  1
  C  C41  1  0.68210000  0.25470000  0.19420000  1
  C  C42  1  0.70920000  0.46750000  0.38180000  1
  C  C43  1  0.76530000  0.60280000  0.98810000  1
  C  C44  1  0.78680000  0.28830000  0.30480000  1
  C  C45  1  0.80170000  0.39690000  0.40050000  1
  C  C46  1  0.88030000  0.44150000  0.90110000  1
  C  C47  1  0.88900000  0.55170000  0.99310000  1
  C  C48  1  0.91930000  0.44000000  0.51960000  1
  C  C49  1  0.99000000  0.38920000  0.90750000  1
  N  N50  1  0.40790000  0.67650000  0.82460000  1
  N  N51  1  0.59210000  0.32350000  0.17540000  1
  O  O52  1  0.21020000  0.27700000  0.94810000  1
  O  O53  1  0.36030000  0.47610000  0.07910000  1
  O  O54  1  0.41760000  0.22150000  0.75140000  1
  O  O55  1  0.43560000  0.86340000  0.14210000  1
  O  O56  1  0.56440000  0.13660000  0.85790000  1
  O  O57  1  0.58240000  0.77850000  0.24860000  1
  O  O58  1  0.63970000  0.52390000  0.92090000  1
  O  O59  1  0.78980000  0.72300000  0.05190000  1
