# generated using pymatgen
data_Co2H31C41(N2O7)2
_symmetry_space_group_name_H-M   'P 1'
_cell_length_a   9.39250000
_cell_length_b   10.19770000
_cell_length_c   24.46160000
_cell_angle_alpha   91.92600000
_cell_angle_beta   90.00000000
_cell_angle_gamma   90.00000000
_symmetry_Int_Tables_number   1
_chemical_formula_structural   Co2H31C41(N2O7)2
_chemical_formula_sum   'Co4 H62 C82 N8 O28'
_cell_volume   2341.65483355
_cell_formula_units_Z   2
loop_
 _symmetry_equiv_pos_site_id
 _symmetry_equiv_pos_as_xyz
  1  'x, y, z'
loop_
 _atom_site_type_symbol
 _atom_site_label
 _atom_site_symmetry_multiplicity
 _atom_site_fract_x
 _atom_site_fract_y
 _atom_site_fract_z
 _atom_site_occupancy
  Co  Co0  1  0.00130000  0.74930000  0.37750000  1
  Co  Co1  1  0.34259000  0.25140000  0.62680000  1
  Co  Co2  1  0.65741000  0.25140000  0.12680000  1
  Co  Co3  1  0.99870000  0.74930000  0.87750000  1
  H  H4  1  0.02690000  0.13690000  0.93510000  1
  H  H5  1  0.03490000  0.57780000  0.53730000  1
  H  H6  1  0.03590000  0.14310000  0.80840000  1
  H  H7  1  0.04180000  0.34800000  0.32670000  1
  H  H8  1  0.07620000  0.33020000  0.68780000  1
  H  H9  1  0.07660000  0.87010000  0.69800000  1
  H  H10  1  0.09640000  0.56600000  0.77900000  1
  H  H11  1  0.10120000  0.15150000  0.56240000  1
  H  H12  1  0.10770000  0.01850000  0.07030000  1
  H  H13  1  0.11790000  0.44130000  0.17940000  1
  H  H14  1  0.14890000  0.96130000  0.44880000  1
  H  H15  1  0.22520000  0.66880000  0.17600000  1
  H  H16  1  0.22770000  0.58400000  0.44230000  1
  H  H17  1  0.23370000  0.86540000  0.07500000  1
  H  H18  1  0.23480000  0.89800000  0.82960000  1
  H  H19  1  0.23740000  0.46470000  0.55630000  1
  H  H20  1  0.25450000  0.08810000  0.23030000  1
  H  H21  1  0.25630000  0.41680000  0.01400000  1
  H  H22  1  0.25840000  0.01900000  0.69220000  1
  H  H23  1  0.28410000  0.52150000  0.72640000  1
  H  H24  1  0.31980000  0.98260000  0.51830000  1
  H  H25  1  0.32590000  0.56350000  0.14830000  1
  H  H26  1  0.33650000  0.95030000  0.11330000  1
  H  H27  1  0.38470000  0.82320000  0.20490000  1
  H  H28  1  0.40000000  0.89790000  0.74780000  1
  H  H29  1  0.40240000  0.45590000  0.25210000  1
  H  H30  1  0.40570000  0.04790000  0.00060000  1
  H  H31  1  0.40800000  0.67190000  0.04710000  1
  H  H32  1  0.40940000  0.60610000  0.49320000  1
  H  H33  1  0.46780000  0.64000000  0.58710000  1
  H  H34  1  0.49680000  0.86780000  0.66370000  1
  H  H35  1  0.50320000  0.86780000  0.16370000  1
  H  H36  1  0.53220000  0.64000000  0.08710000  1
  H  H37  1  0.59060000  0.60610000  0.99320000  1
  H  H38  1  0.59200000  0.67190000  0.54710000  1
  H  H39  1  0.59430000  0.04790000  0.50060000  1
  H  H40  1  0.59760000  0.45590000  0.75210000  1
  H  H41  1  0.60000000  0.89790000  0.24780000  1
  H  H42  1  0.61530000  0.82320000  0.70490000  1
  H  H43  1  0.66350000  0.95030000  0.61330000  1
  H  H44  1  0.67410000  0.56350000  0.64830000  1
  H  H45  1  0.68020000  0.98260000  0.01830000  1
  H  H46  1  0.71590000  0.52150000  0.22640000  1
  H  H47  1  0.74160000  0.01900000  0.19220000  1
  H  H48  1  0.74370000  0.41680000  0.51400000  1
  H  H49  1  0.74550000  0.08810000  0.73030000  1
  H  H50  1  0.76260000  0.46470000  0.05630000  1
  H  H51  1  0.76520000  0.89800000  0.32960000  1
  H  H52  1  0.76630000  0.86540000  0.57500000  1
  H  H53  1  0.77230000  0.58400000  0.94230000  1
  H  H54  1  0.77480000  0.66880000  0.67600000  1
  H  H55  1  0.85110000  0.96130000  0.94880000  1
  H  H56  1  0.88210000  0.44130000  0.67940000  1
  H  H57  1  0.89230000  0.01850000  0.57030000  1
  H  H58  1  0.89880000  0.15150000  0.06240000  1
  H  H59  1  0.90360000  0.56600000  0.27900000  1
  H  H60  1  0.92340000  0.87010000  0.19800000  1
  H  H61  1  0.92380000  0.33020000  0.18780000  1
  H  H62  1  0.95820000  0.34800000  0.82670000  1
  H  H63  1  0.96410000  0.14310000  0.30840000  1
  H  H64  1  0.96510000  0.57780000  0.03730000  1
  H  H65  1  0.97310000  0.13690000  0.43510000  1
  C  C66  1  0.03900000  0.02400000  0.09780000  1
  C  C67  1  0.04300000  0.45400000  0.15520000  1
  C  C68  1  0.04700000  0.53700000  0.57050000  1
  C  C69  1  0.05400000  0.96200000  0.14490000  1
  C  C70  1  0.05500000  0.54900000  0.11550000  1
  C  C71  1  0.07110000  0.93910000  0.67420000  1
  C  C72  1  0.07200000  0.38500000  0.65820000  1
  C  C73  1  0.09100000  0.09900000  0.59240000  1
  C  C74  1  0.10810000  0.16240000  0.95440000  1
  C  C75  1  0.11840000  0.32770000  0.30380000  1
  C  C76  1  0.12410000  0.29200000  0.97280000  1
  C  C77  1  0.13130000  0.20230000  0.28030000  1
  C  C78  1  0.16400000  0.46100000  0.58160000  1
  C  C79  1  0.17000000  0.62690000  0.77940000  1
  C  C80  1  0.17700000  0.56700000  0.31290000  1
  C  C81  1  0.18400000  0.02000000  0.66700000  1
  C  C82  1  0.19410000  0.88810000  0.46240000  1
  C  C83  1  0.20000000  0.94000000  0.94290000  1
  C  C84  1  0.21360000  0.07090000  0.96480000  1
  C  C85  1  0.22000000  0.42270000  0.29330000  1
  C  C86  1  0.23900000  0.82300000  0.80690000  1
  C  C87  1  0.24560000  0.33010000  0.00170000  1
  C  C88  1  0.24580000  0.17190000  0.24610000  1
  C  C89  1  0.24600000  0.66690000  0.45770000  1
  C  C90  1  0.27200000  0.64290000  0.14210000  1
  C  C91  1  0.27400000  0.60300000  0.74380000  1
  C  C92  1  0.27500000  0.87400000  0.11130000  1
  C  C93  1  0.29700000  0.90000000  0.50340000  1
  C  C94  1  0.33450000  0.39230000  0.25910000  1
  C  C95  1  0.33510000  0.10910000  0.99360000  1
  C  C96  1  0.34600000  0.67500000  0.48960000  1
  C  C97  1  0.34740000  0.26700000  0.23550000  1
  C  C98  1  0.35100000  0.82300000  0.75800000  1
  C  C99  1  0.35110000  0.23860000  0.01210000  1
  C  C100  1  0.36170000  0.73700000  0.12840000  1
  C  C101  1  0.36300000  0.79500000  0.52110000  1
  C  C102  1  0.36900000  0.70700000  0.73310000  1
  C  C103  1  0.44600000  0.79400000  0.17510000  1
  C  C104  1  0.46430000  0.27770000  0.04830000  1
  C  C105  1  0.46500000  0.70700000  0.07730000  1
  C  C106  1  0.49400000  0.24100000  0.20200000  1
  C  C107  1  0.50600000  0.24100000  0.70200000  1
  C  C108  1  0.53500000  0.70700000  0.57730000  1
  C  C109  1  0.53570000  0.27770000  0.54830000  1
  C  C110  1  0.55400000  0.79400000  0.67510000  1
  C  C111  1  0.63100000  0.70700000  0.23310000  1
  C  C112  1  0.63700000  0.79500000  0.02110000  1
  C  C113  1  0.63830000  0.73700000  0.62840000  1
  C  C114  1  0.64890000  0.23860000  0.51210000  1
  C  C115  1  0.64900000  0.82300000  0.25800000  1
  C  C116  1  0.65260000  0.26700000  0.73550000  1
  C  C117  1  0.65400000  0.67500000  0.98960000  1
  C  C118  1  0.66490000  0.10910000  0.49360000  1
  C  C119  1  0.66550000  0.39230000  0.75910000  1
  C  C120  1  0.70300000  0.90000000  0.00340000  1
  C  C121  1  0.72500000  0.87400000  0.61130000  1
  C  C122  1  0.72600000  0.60300000  0.24380000  1
  C  C123  1  0.72800000  0.64290000  0.64210000  1
  C  C124  1  0.75400000  0.66690000  0.95770000  1
  C  C125  1  0.75420000  0.17190000  0.74610000  1
  C  C126  1  0.75440000  0.33010000  0.50170000  1
  C  C127  1  0.76100000  0.82300000  0.30690000  1
  C  C128  1  0.78000000  0.42270000  0.79330000  1
  C  C129  1  0.78640000  0.07090000  0.46480000  1
  C  C130  1  0.80000000  0.94000000  0.44290000  1
  C  C131  1  0.80590000  0.88810000  0.96240000  1
  C  C132  1  0.81600000  0.02000000  0.16700000  1
  C  C133  1  0.82300000  0.56700000  0.81290000  1
  C  C134  1  0.83000000  0.62690000  0.27940000  1
  C  C135  1  0.83600000  0.46100000  0.08160000  1
  C  C136  1  0.86870000  0.20230000  0.78030000  1
  C  C137  1  0.87590000  0.29200000  0.47280000  1
  C  C138  1  0.88160000  0.32770000  0.80380000  1
  C  C139  1  0.89190000  0.16240000  0.45440000  1
  C  C140  1  0.90900000  0.09900000  0.09240000  1
  C  C141  1  0.92800000  0.38500000  0.15820000  1
  C  C142  1  0.92890000  0.93910000  0.17420000  1
  C  C143  1  0.94500000  0.54900000  0.61550000  1
  C  C144  1  0.94600000  0.96200000  0.64490000  1
  C  C145  1  0.95300000  0.53700000  0.07050000  1
  C  C146  1  0.95700000  0.45400000  0.65520000  1
  C  C147  1  0.96100000  0.02400000  0.59780000  1
  N  N148  1  0.15700000  0.73050000  0.81710000  1
  N  N149  1  0.16200000  0.76150000  0.44290000  1
  N  N150  1  0.18690000  0.38120000  0.62430000  1
  N  N151  1  0.19290000  0.09470000  0.62810000  1
  N  N152  1  0.80710000  0.09470000  0.12810000  1
  N  N153  1  0.81310000  0.38120000  0.12430000  1
  N  N154  1  0.83800000  0.76150000  0.94290000  1
  N  N155  1  0.84300000  0.73050000  0.31710000  1
  O  O156  1  0.02500000  0.38470000  0.96360000  1
  O  O157  1  0.02600000  0.11040000  0.28880000  1
  O  O158  1  0.09280000  0.58260000  0.34670000  1
  O  O159  1  0.09820000  0.91450000  0.90860000  1
  O  O160  1  0.16260000  0.88050000  0.15470000  1
  O  O161  1  0.17180000  0.61700000  0.10290000  1
  O  O162  1  0.24350000  0.84370000  0.97160000  1
  O  O163  1  0.30090000  0.64210000  0.30520000  1
  O  O164  1  0.40500000  0.21900000  0.54800000  1
  O  O165  1  0.42000000  0.30700000  0.70220000  1
  O  O166  1  0.46030000  0.81430000  0.55950000  1
  O  O167  1  0.46350000  0.68480000  0.69100000  1
  O  O168  1  0.46810000  0.13450000  0.16850000  1
  O  O169  1  0.47700000  0.39500000  0.06780000  1
  O  O170  1  0.52300000  0.39500000  0.56780000  1
  O  O171  1  0.53190000  0.13450000  0.66850000  1
  O  O172  1  0.53650000  0.68480000  0.19100000  1
  O  O173  1  0.53970000  0.81430000  0.05950000  1
  O  O174  1  0.58000000  0.30700000  0.20220000  1
  O  O175  1  0.59500000  0.21900000  0.04800000  1
  O  O176  1  0.69910000  0.64210000  0.80520000  1
  O  O177  1  0.75650000  0.84370000  0.47160000  1
  O  O178  1  0.82820000  0.61700000  0.60290000  1
  O  O179  1  0.83740000  0.88050000  0.65470000  1
  O  O180  1  0.90180000  0.91450000  0.40860000  1
  O  O181  1  0.90720000  0.58260000  0.84670000  1
  O  O182  1  0.97400000  0.11040000  0.78880000  1
  O  O183  1  0.97500000  0.38470000  0.46360000  1
