# generated using pymatgen
data_Cd2H4C2SN4O5
_symmetry_space_group_name_H-M   'P 1'
_cell_length_a   7.13010000
_cell_length_b   9.62270000
_cell_length_c   16.76250000
_cell_angle_alpha   90.00000000
_cell_angle_beta   90.00000000
_cell_angle_gamma   90.00000000
_symmetry_Int_Tables_number   1
_chemical_formula_structural   Cd2H4C2SN4O5
_chemical_formula_sum   'Cd8 H16 C8 S4 N16 O20'
_cell_volume   1150.08875744
_cell_formula_units_Z   4
loop_
 _symmetry_equiv_pos_site_id
 _symmetry_equiv_pos_as_xyz
  1  'x, y, z'
loop_
 _atom_site_type_symbol
 _atom_site_label
 _atom_site_symmetry_multiplicity
 _atom_site_fract_x
 _atom_site_fract_y
 _atom_site_fract_z
 _atom_site_occupancy
  Cd  Cd0  1  0.20710000  0.21741000  0.15697000  1
  Cd  Cd1  1  0.20710000  0.71741000  0.34303000  1
  Cd  Cd2  1  0.45760000  0.00048000  0.00024000  1
  Cd  Cd3  1  0.45760000  0.50048000  0.49976000  1
  Cd  Cd4  1  0.70710000  0.28259000  0.65697000  1
  Cd  Cd5  1  0.70710000  0.78259000  0.84303000  1
  Cd  Cd6  1  0.95760000  0.49952000  0.50024000  1
  Cd  Cd7  1  0.95760000  0.99952000  0.99976000  1
  H  H8  1  0.06200000  0.09920000  0.75820000  1
  H  H9  1  0.06200000  0.59920000  0.74180000  1
  H  H10  1  0.23300000  0.20200000  0.00200000  1
  H  H11  1  0.23300000  0.70200000  0.49800000  1
  H  H12  1  0.25130000  0.03530000  0.72800000  1
  H  H13  1  0.25130000  0.53530000  0.77200000  1
  H  H14  1  0.25320000  0.15240000  0.79300000  1
  H  H15  1  0.25320000  0.65240000  0.70700000  1
  H  H16  1  0.56200000  0.40080000  0.25820000  1
  H  H17  1  0.56200000  0.90080000  0.24180000  1
  H  H18  1  0.73300000  0.29800000  0.50200000  1
  H  H19  1  0.73300000  0.79800000  0.99800000  1
  H  H20  1  0.75130000  0.46470000  0.22800000  1
  H  H21  1  0.75130000  0.96470000  0.27200000  1
  H  H22  1  0.75320000  0.34760000  0.29300000  1
  H  H23  1  0.75320000  0.84760000  0.20700000  1
  C  C24  1  0.19090000  0.11870000  0.74600000  1
  C  C25  1  0.19090000  0.61870000  0.75400000  1
  C  C26  1  0.20100000  0.22590000  0.68240000  1
  C  C27  1  0.20100000  0.72590000  0.81760000  1
  C  C28  1  0.69090000  0.38130000  0.24600000  1
  C  C29  1  0.69090000  0.88130000  0.25400000  1
  C  C30  1  0.70100000  0.27410000  0.18240000  1
  C  C31  1  0.70100000  0.77410000  0.31760000  1
  S  S32  1  0.20520000  0.35679000  0.34828000  1
  S  S33  1  0.20520000  0.85679000  0.15172000  1
  S  S34  1  0.70520000  0.14321000  0.84828000  1
  S  S35  1  0.70520000  0.64321000  0.65172000  1
  N  N36  1  0.04650000  0.28210000  0.64910000  1
  N  N37  1  0.04650000  0.78210000  0.85090000  1
  N  N38  1  0.12430000  0.36810000  0.59210000  1
  N  N39  1  0.12430000  0.86810000  0.90790000  1
  N  N40  1  0.30630000  0.36890000  0.59580000  1
  N  N41  1  0.30630000  0.86890000  0.90420000  1
  N  N42  1  0.35800000  0.27850000  0.64950000  1
  N  N43  1  0.35800000  0.77850000  0.85050000  1
  N  N44  1  0.54650000  0.21790000  0.14910000  1
  N  N45  1  0.54650000  0.71790000  0.35090000  1
  N  N46  1  0.62430000  0.13190000  0.09210000  1
  N  N47  1  0.62430000  0.63190000  0.40790000  1
  N  N48  1  0.80630000  0.13110000  0.09580000  1
  N  N49  1  0.80630000  0.63110000  0.40420000  1
  N  N50  1  0.85800000  0.22150000  0.14950000  1
  N  N51  1  0.85800000  0.72150000  0.35050000  1
  O  O52  1  0.03560000  0.34820000  0.40080000  1
  O  O53  1  0.03560000  0.84820000  0.09920000  1
  O  O54  1  0.19700000  0.13450000  0.03030000  1
  O  O55  1  0.19700000  0.63450000  0.46970000  1
  O  O56  1  0.21700000  0.24070000  0.29160000  1
  O  O57  1  0.21700000  0.74070000  0.20840000  1
  O  O58  1  0.22400000  0.48890000  0.30480000  1
  O  O59  1  0.22400000  0.98890000  0.19520000  1
  O  O60  1  0.37080000  0.34750000  0.39710000  1
  O  O61  1  0.37080000  0.84750000  0.10290000  1
  O  O62  1  0.53560000  0.15180000  0.90080000  1
  O  O63  1  0.53560000  0.65180000  0.59920000  1
  O  O64  1  0.69700000  0.36550000  0.53030000  1
  O  O65  1  0.69700000  0.86550000  0.96970000  1
  O  O66  1  0.71700000  0.25930000  0.79160000  1
  O  O67  1  0.71700000  0.75930000  0.70840000  1
  O  O68  1  0.72400000  0.01110000  0.80480000  1
  O  O69  1  0.72400000  0.51110000  0.69520000  1
  O  O70  1  0.87080000  0.15250000  0.89710000  1
  O  O71  1  0.87080000  0.65250000  0.60290000  1
