# generated using pymatgen
data_GdAgH8C18(NO2)4
_symmetry_space_group_name_H-M   'P 1'
_cell_length_a   8.55250000
_cell_length_b   17.82700000
_cell_length_c   25.28700000
_cell_angle_alpha   90.00000000
_cell_angle_beta   90.00000000
_cell_angle_gamma   90.00000000
_symmetry_Int_Tables_number   1
_chemical_formula_structural   GdAgH8C18(NO2)4
_chemical_formula_sum   'Gd8 Ag8 H64 C144 N32 O64'
_cell_volume   3855.39301232
_cell_formula_units_Z   8
loop_
 _symmetry_equiv_pos_site_id
 _symmetry_equiv_pos_as_xyz
  1  'x, y, z'
loop_
 _atom_site_type_symbol
 _atom_site_label
 _atom_site_symmetry_multiplicity
 _atom_site_fract_x
 _atom_site_fract_y
 _atom_site_fract_z
 _atom_site_occupancy
  Gd  Gd0  1  0.83565000  0.28308000  0.47638000  1
  Gd  Gd1  1  0.83565000  0.78308000  0.02362000  1
  Gd  Gd2  1  0.66435000  0.78308000  0.47638000  1
  Gd  Gd3  1  0.66435000  0.28308000  0.02362000  1
  Gd  Gd4  1  0.33565000  0.71692000  0.97638000  1
  Gd  Gd5  1  0.33565000  0.21692000  0.52362000  1
  Gd  Gd6  1  0.16435000  0.21692000  0.97638000  1
  Gd  Gd7  1  0.16435000  0.71692000  0.52362000  1
  Ag  Ag8  1  0.96123000  0.95135000  0.77310000  1
  Ag  Ag9  1  0.96123000  0.45135000  0.72690000  1
  Ag  Ag10  1  0.53877000  0.45135000  0.77310000  1
  Ag  Ag11  1  0.53877000  0.95135000  0.72690000  1
  Ag  Ag12  1  0.46123000  0.04865000  0.27310000  1
  Ag  Ag13  1  0.46123000  0.54865000  0.22690000  1
  Ag  Ag14  1  0.03877000  0.54865000  0.27310000  1
  Ag  Ag15  1  0.03877000  0.04865000  0.22690000  1
  H  H16  1  0.96650000  0.00810000  0.45450000  1
  H  H17  1  0.96650000  0.50810000  0.04550000  1
  H  H18  1  0.94260000  0.89970000  0.29370000  1
  H  H19  1  0.94260000  0.39970000  0.20630000  1
  H  H20  1  0.93780000  0.35670000  0.90340000  1
  H  H21  1  0.93780000  0.85670000  0.59660000  1
  H  H22  1  0.89910000  0.08110000  0.85960000  1
  H  H23  1  0.89910000  0.58110000  0.64040000  1
  H  H24  1  0.88240000  0.50400000  0.43140000  1
  H  H25  1  0.88240000  0.00400000  0.06860000  1
  H  H26  1  0.81660000  0.15960000  0.29710000  1
  H  H27  1  0.81660000  0.65960000  0.20290000  1
  H  H28  1  0.77930000  0.89440000  0.36860000  1
  H  H29  1  0.77930000  0.39440000  0.13140000  1
  H  H30  1  0.75400000  0.32690000  0.83710000  1
  H  H31  1  0.75400000  0.82690000  0.66290000  1
  H  H32  1  0.74600000  0.82690000  0.83710000  1
  H  H33  1  0.74600000  0.32690000  0.66290000  1
  H  H34  1  0.72070000  0.39440000  0.36860000  1
  H  H35  1  0.72070000  0.89440000  0.13140000  1
  H  H36  1  0.68340000  0.65960000  0.29710000  1
  H  H37  1  0.68340000  0.15960000  0.20290000  1
  H  H38  1  0.61760000  0.00400000  0.43140000  1
  H  H39  1  0.61760000  0.50400000  0.06860000  1
  H  H40  1  0.60090000  0.58110000  0.85960000  1
  H  H41  1  0.60090000  0.08110000  0.64040000  1
  H  H42  1  0.56220000  0.85670000  0.90340000  1
  H  H43  1  0.56220000  0.35670000  0.59660000  1
  H  H44  1  0.55740000  0.39970000  0.29370000  1
  H  H45  1  0.55740000  0.89970000  0.20630000  1
  H  H46  1  0.53350000  0.50810000  0.45450000  1
  H  H47  1  0.53350000  0.00810000  0.04550000  1
  H  H48  1  0.46650000  0.99190000  0.95450000  1
  H  H49  1  0.46650000  0.49190000  0.54550000  1
  H  H50  1  0.44260000  0.10030000  0.79370000  1
  H  H51  1  0.44260000  0.60030000  0.70630000  1
  H  H52  1  0.43780000  0.64330000  0.40340000  1
  H  H53  1  0.43780000  0.14330000  0.09660000  1
  H  H54  1  0.39910000  0.91890000  0.35960000  1
  H  H55  1  0.39910000  0.41890000  0.14040000  1
  H  H56  1  0.38240000  0.49600000  0.93140000  1
  H  H57  1  0.38240000  0.99600000  0.56860000  1
  H  H58  1  0.31660000  0.84040000  0.79710000  1
  H  H59  1  0.31660000  0.34040000  0.70290000  1
  H  H60  1  0.27930000  0.10560000  0.86860000  1
  H  H61  1  0.27930000  0.60560000  0.63140000  1
  H  H62  1  0.25400000  0.67310000  0.33710000  1
  H  H63  1  0.25400000  0.17310000  0.16290000  1
  H  H64  1  0.24600000  0.17310000  0.33710000  1
  H  H65  1  0.24600000  0.67310000  0.16290000  1
  H  H66  1  0.22070000  0.60560000  0.86860000  1
  H  H67  1  0.22070000  0.10560000  0.63140000  1
  H  H68  1  0.18340000  0.34040000  0.79710000  1
  H  H69  1  0.18340000  0.84040000  0.70290000  1
  H  H70  1  0.11760000  0.99600000  0.93140000  1
  H  H71  1  0.11760000  0.49600000  0.56860000  1
  H  H72  1  0.10090000  0.41890000  0.35960000  1
  H  H73  1  0.10090000  0.91890000  0.14040000  1
  H  H74  1  0.06220000  0.14330000  0.40340000  1
  H  H75  1  0.06220000  0.64330000  0.09660000  1
  H  H76  1  0.05740000  0.60030000  0.79370000  1
  H  H77  1  0.05740000  0.10030000  0.70630000  1
  H  H78  1  0.03350000  0.49190000  0.95450000  1
  H  H79  1  0.03350000  0.99190000  0.54550000  1
  C  C80  1  0.99020000  0.62810000  0.98190000  1
  C  C81  1  0.99020000  0.12810000  0.51810000  1
  C  C82  1  0.95070000  0.64520000  0.45210000  1
  C  C83  1  0.95070000  0.14520000  0.04790000  1
  C  C84  1  0.94570000  0.50950000  0.93670000  1
  C  C85  1  0.94570000  0.00950000  0.56330000  1
  C  C86  1  0.89470000  0.58220000  0.94340000  1
  C  C87  1  0.89470000  0.08220000  0.55660000  1
  C  C88  1  0.89180000  0.94030000  0.30910000  1
  C  C89  1  0.89180000  0.44030000  0.19090000  1
  C  C90  1  0.86500000  0.61160000  0.40640000  1
  C  C91  1  0.86500000  0.11160000  0.09360000  1
  C  C92  1  0.86150000  0.46320000  0.90250000  1
  C  C93  1  0.86150000  0.96320000  0.59750000  1
  C  C94  1  0.84080000  0.53510000  0.40540000  1
  C  C95  1  0.84080000  0.03510000  0.09460000  1
  C  C96  1  0.83970000  0.74170000  0.36260000  1
  C  C97  1  0.83970000  0.24170000  0.13740000  1
  C  C98  1  0.81460000  0.06340000  0.87910000  1
  C  C99  1  0.81460000  0.56340000  0.62090000  1
  C  C100  1  0.81040000  0.05260000  0.32470000  1
  C  C101  1  0.81040000  0.55260000  0.17530000  1
  C  C102  1  0.80850000  0.18510000  0.92540000  1
  C  C103  1  0.80850000  0.68510000  0.57460000  1
  C  C104  1  0.80640000  0.65880000  0.36520000  1
  C  C105  1  0.80640000  0.15880000  0.13480000  1
  C  C106  1  0.77980000  0.12920000  0.32430000  1
  C  C107  1  0.77980000  0.62920000  0.17570000  1
  C  C108  1  0.76810000  0.37390000  0.85230000  1
  C  C109  1  0.76810000  0.87390000  0.64770000  1
  C  C110  1  0.76090000  0.99090000  0.87210000  1
  C  C111  1  0.76090000  0.49090000  0.62790000  1
  C  C112  1  0.76000000  0.60940000  0.91600000  1
  C  C113  1  0.76000000  0.10940000  0.58400000  1
  C  C114  1  0.75140000  0.50570000  0.36380000  1
  C  C115  1  0.75140000  0.00570000  0.13620000  1
  C  C116  1  0.74860000  0.00570000  0.36380000  1
  C  C117  1  0.74860000  0.50570000  0.13620000  1
  C  C118  1  0.74000000  0.10940000  0.91600000  1
  C  C119  1  0.74000000  0.60940000  0.58400000  1
  C  C120  1  0.73910000  0.49090000  0.87210000  1
  C  C121  1  0.73910000  0.99090000  0.62790000  1
  C  C122  1  0.73190000  0.87390000  0.85230000  1
  C  C123  1  0.73190000  0.37390000  0.64770000  1
  C  C124  1  0.72020000  0.62920000  0.32430000  1
  C  C125  1  0.72020000  0.12920000  0.17570000  1
  C  C126  1  0.69360000  0.15880000  0.36520000  1
  C  C127  1  0.69360000  0.65880000  0.13480000  1
  C  C128  1  0.69150000  0.68510000  0.92540000  1
  C  C129  1  0.69150000  0.18510000  0.57460000  1
  C  C130  1  0.68960000  0.55260000  0.32470000  1
  C  C131  1  0.68960000  0.05260000  0.17530000  1
  C  C132  1  0.68540000  0.56340000  0.87910000  1
  C  C133  1  0.68540000  0.06340000  0.62090000  1
  C  C134  1  0.66030000  0.24170000  0.36260000  1
  C  C135  1  0.66030000  0.74170000  0.13740000  1
  C  C136  1  0.65920000  0.03510000  0.40540000  1
  C  C137  1  0.65920000  0.53510000  0.09460000  1
  C  C138  1  0.63850000  0.96320000  0.90250000  1
  C  C139  1  0.63850000  0.46320000  0.59750000  1
  C  C140  1  0.63500000  0.11160000  0.40640000  1
  C  C141  1  0.63500000  0.61160000  0.09360000  1
  C  C142  1  0.60820000  0.44030000  0.30910000  1
  C  C143  1  0.60820000  0.94030000  0.19090000  1
  C  C144  1  0.60530000  0.08220000  0.94340000  1
  C  C145  1  0.60530000  0.58220000  0.55660000  1
  C  C146  1  0.55430000  0.00950000  0.93670000  1
  C  C147  1  0.55430000  0.50950000  0.56330000  1
  C  C148  1  0.54930000  0.14520000  0.45210000  1
  C  C149  1  0.54930000  0.64520000  0.04790000  1
  C  C150  1  0.50980000  0.12810000  0.98190000  1
  C  C151  1  0.50980000  0.62810000  0.51810000  1
  C  C152  1  0.49020000  0.37190000  0.48190000  1
  C  C153  1  0.49020000  0.87190000  0.01810000  1
  C  C154  1  0.45070000  0.35480000  0.95210000  1
  C  C155  1  0.45070000  0.85480000  0.54790000  1
  C  C156  1  0.44570000  0.49050000  0.43670000  1
  C  C157  1  0.44570000  0.99050000  0.06330000  1
  C  C158  1  0.39470000  0.41780000  0.44340000  1
  C  C159  1  0.39470000  0.91780000  0.05660000  1
  C  C160  1  0.39180000  0.05970000  0.80910000  1
  C  C161  1  0.39180000  0.55970000  0.69090000  1
  C  C162  1  0.36500000  0.38840000  0.90640000  1
  C  C163  1  0.36500000  0.88840000  0.59360000  1
  C  C164  1  0.36150000  0.53680000  0.40250000  1
  C  C165  1  0.36150000  0.03680000  0.09750000  1
  C  C166  1  0.34080000  0.46490000  0.90540000  1
  C  C167  1  0.34080000  0.96490000  0.59460000  1
  C  C168  1  0.33970000  0.25830000  0.86260000  1
  C  C169  1  0.33970000  0.75830000  0.63740000  1
  C  C170  1  0.31460000  0.93660000  0.37910000  1
  C  C171  1  0.31460000  0.43660000  0.12090000  1
  C  C172  1  0.31040000  0.94740000  0.82470000  1
  C  C173  1  0.31040000  0.44740000  0.67530000  1
  C  C174  1  0.30850000  0.81490000  0.42540000  1
  C  C175  1  0.30850000  0.31490000  0.07460000  1
  C  C176  1  0.30640000  0.34120000  0.86520000  1
  C  C177  1  0.30640000  0.84120000  0.63480000  1
  C  C178  1  0.27980000  0.87080000  0.82430000  1
  C  C179  1  0.27980000  0.37080000  0.67570000  1
  C  C180  1  0.26810000  0.62610000  0.35230000  1
  C  C181  1  0.26810000  0.12610000  0.14770000  1
  C  C182  1  0.26090000  0.00910000  0.37210000  1
  C  C183  1  0.26090000  0.50910000  0.12790000  1
  C  C184  1  0.26000000  0.39060000  0.41600000  1
  C  C185  1  0.26000000  0.89060000  0.08400000  1
  C  C186  1  0.25140000  0.49430000  0.86380000  1
  C  C187  1  0.25140000  0.99430000  0.63620000  1
  C  C188  1  0.24860000  0.99430000  0.86380000  1
  C  C189  1  0.24860000  0.49430000  0.63620000  1
  C  C190  1  0.24000000  0.89060000  0.41600000  1
  C  C191  1  0.24000000  0.39060000  0.08400000  1
  C  C192  1  0.23910000  0.50910000  0.37210000  1
  C  C193  1  0.23910000  0.00910000  0.12790000  1
  C  C194  1  0.23190000  0.12610000  0.35230000  1
  C  C195  1  0.23190000  0.62610000  0.14770000  1
  C  C196  1  0.22020000  0.37080000  0.82430000  1
  C  C197  1  0.22020000  0.87080000  0.67570000  1
  C  C198  1  0.19360000  0.84120000  0.86520000  1
  C  C199  1  0.19360000  0.34120000  0.63480000  1
  C  C200  1  0.19150000  0.31490000  0.42540000  1
  C  C201  1  0.19150000  0.81490000  0.07460000  1
  C  C202  1  0.18960000  0.44740000  0.82470000  1
  C  C203  1  0.18960000  0.94740000  0.67530000  1
  C  C204  1  0.18540000  0.43660000  0.37910000  1
  C  C205  1  0.18540000  0.93660000  0.12090000  1
  C  C206  1  0.16030000  0.75830000  0.86260000  1
  C  C207  1  0.16030000  0.25830000  0.63740000  1
  C  C208  1  0.15920000  0.96490000  0.90540000  1
  C  C209  1  0.15920000  0.46490000  0.59460000  1
  C  C210  1  0.13850000  0.03680000  0.40250000  1
  C  C211  1  0.13850000  0.53680000  0.09750000  1
  C  C212  1  0.13500000  0.88840000  0.90640000  1
  C  C213  1  0.13500000  0.38840000  0.59360000  1
  C  C214  1  0.10820000  0.55970000  0.80910000  1
  C  C215  1  0.10820000  0.05970000  0.69090000  1
  C  C216  1  0.10530000  0.91780000  0.44340000  1
  C  C217  1  0.10530000  0.41780000  0.05660000  1
  C  C218  1  0.05430000  0.99050000  0.43670000  1
  C  C219  1  0.05430000  0.49050000  0.06330000  1
  C  C220  1  0.04930000  0.85480000  0.95210000  1
  C  C221  1  0.04930000  0.35480000  0.54790000  1
  C  C222  1  0.00980000  0.87190000  0.48190000  1
  C  C223  1  0.00980000  0.37190000  0.01810000  1
  N  N224  1  0.90180000  0.00920000  0.29110000  1
  N  N225  1  0.90180000  0.50920000  0.20890000  1
  N  N226  1  0.87370000  0.38840000  0.88972000  1
  N  N227  1  0.87370000  0.88840000  0.61028000  1
  N  N228  1  0.81390000  0.93360000  0.83920000  1
  N  N229  1  0.81390000  0.43360000  0.66080000  1
  N  N230  1  0.80110000  0.93490000  0.35170000  1
  N  N231  1  0.80110000  0.43490000  0.14830000  1
  N  N232  1  0.69890000  0.43490000  0.35170000  1
  N  N233  1  0.69890000  0.93490000  0.14830000  1
  N  N234  1  0.68610000  0.43360000  0.83920000  1
  N  N235  1  0.68610000  0.93360000  0.66080000  1
  N  N236  1  0.62630000  0.88840000  0.88972000  1
  N  N237  1  0.62630000  0.38840000  0.61028000  1
  N  N238  1  0.59820000  0.50920000  0.29110000  1
  N  N239  1  0.59820000  0.00920000  0.20890000  1
  N  N240  1  0.40180000  0.99080000  0.79110000  1
  N  N241  1  0.40180000  0.49080000  0.70890000  1
  N  N242  1  0.37370000  0.61160000  0.38972000  1
  N  N243  1  0.37370000  0.11160000  0.11028000  1
  N  N244  1  0.31390000  0.06640000  0.33920000  1
  N  N245  1  0.31390000  0.56640000  0.16080000  1
  N  N246  1  0.30110000  0.06510000  0.85170000  1
  N  N247  1  0.30110000  0.56510000  0.64830000  1
  N  N248  1  0.19890000  0.56510000  0.85170000  1
  N  N249  1  0.19890000  0.06510000  0.64830000  1
  N  N250  1  0.18610000  0.56640000  0.33920000  1
  N  N251  1  0.18610000  0.06640000  0.16080000  1
  N  N252  1  0.12630000  0.11160000  0.38972000  1
  N  N253  1  0.12630000  0.61160000  0.11028000  1
  N  N254  1  0.09820000  0.49080000  0.79110000  1
  N  N255  1  0.09820000  0.99080000  0.70890000  1
  O  O256  1  0.95410000  0.19150000  0.91902000  1
  O  O257  1  0.95410000  0.69150000  0.58098000  1
  O  O258  1  0.94670000  0.76490000  0.33480000  1
  O  O259  1  0.94670000  0.26490000  0.16520000  1
  O  O260  1  0.93820000  0.88860000  0.97340000  1
  O  O261  1  0.93820000  0.38860000  0.52660000  1
  O  O262  1  0.92260000  0.15980000  0.47937000  1
  O  O263  1  0.92260000  0.65980000  0.02063000  1
  O  O264  1  0.91140000  0.71080000  0.46849000  1
  O  O265  1  0.91140000  0.21080000  0.03151000  1
  O  O266  1  0.86530000  0.87250000  0.47524000  1
  O  O267  1  0.86530000  0.37250000  0.02476000  1
  O  O268  1  0.77770000  0.73900000  0.93882000  1
  O  O269  1  0.77770000  0.23900000  0.56118000  1
  O  O270  1  0.75330000  0.28540000  0.38789000  1
  O  O271  1  0.75330000  0.78540000  0.11211000  1
  O  O272  1  0.74670000  0.78540000  0.38789000  1
  O  O273  1  0.74670000  0.28540000  0.11211000  1
  O  O274  1  0.72230000  0.23900000  0.93882000  1
  O  O275  1  0.72230000  0.73900000  0.56118000  1
  O  O276  1  0.63470000  0.37250000  0.47524000  1
  O  O277  1  0.63470000  0.87250000  0.02476000  1
  O  O278  1  0.58860000  0.21080000  0.46849000  1
  O  O279  1  0.58860000  0.71080000  0.03151000  1
  O  O280  1  0.57740000  0.65980000  0.47937000  1
  O  O281  1  0.57740000  0.15980000  0.02063000  1
  O  O282  1  0.56180000  0.38860000  0.97340000  1
  O  O283  1  0.56180000  0.88860000  0.52660000  1
  O  O284  1  0.55330000  0.26490000  0.33480000  1
  O  O285  1  0.55330000  0.76490000  0.16520000  1
  O  O286  1  0.54590000  0.69150000  0.91902000  1
  O  O287  1  0.54590000  0.19150000  0.58098000  1
  O  O288  1  0.45410000  0.80850000  0.41902000  1
  O  O289  1  0.45410000  0.30850000  0.08098000  1
  O  O290  1  0.44670000  0.23510000  0.83480000  1
  O  O291  1  0.44670000  0.73510000  0.66520000  1
  O  O292  1  0.43820000  0.11140000  0.47340000  1
  O  O293  1  0.43820000  0.61140000  0.02660000  1
  O  O294  1  0.42260000  0.84020000  0.97937000  1
  O  O295  1  0.42260000  0.34020000  0.52063000  1
  O  O296  1  0.41140000  0.28920000  0.96849000  1
  O  O297  1  0.41140000  0.78920000  0.53151000  1
  O  O298  1  0.36530000  0.12750000  0.97524000  1
  O  O299  1  0.36530000  0.62750000  0.52476000  1
  O  O300  1  0.27770000  0.26100000  0.43882000  1
  O  O301  1  0.27770000  0.76100000  0.06118000  1
  O  O302  1  0.25330000  0.71460000  0.88789000  1
  O  O303  1  0.25330000  0.21460000  0.61211000  1
  O  O304  1  0.24670000  0.21460000  0.88789000  1
  O  O305  1  0.24670000  0.71460000  0.61211000  1
  O  O306  1  0.22230000  0.76100000  0.43882000  1
  O  O307  1  0.22230000  0.26100000  0.06118000  1
  O  O308  1  0.13470000  0.62750000  0.97524000  1
  O  O309  1  0.13470000  0.12750000  0.52476000  1
  O  O310  1  0.08860000  0.78920000  0.96849000  1
  O  O311  1  0.08860000  0.28920000  0.53151000  1
  O  O312  1  0.07740000  0.34020000  0.97937000  1
  O  O313  1  0.07740000  0.84020000  0.52063000  1
  O  O314  1  0.06180000  0.61140000  0.47340000  1
  O  O315  1  0.06180000  0.11140000  0.02660000  1
  O  O316  1  0.05330000  0.73510000  0.83480000  1
  O  O317  1  0.05330000  0.23510000  0.66520000  1
  O  O318  1  0.04590000  0.30850000  0.41902000  1
  O  O319  1  0.04590000  0.80850000  0.08098000  1
