# generated using pymatgen
data_Cu5H22C38S3N2O21
_symmetry_space_group_name_H-M   'P 1'
_cell_length_a   28.19400000
_cell_length_b   31.23600000
_cell_length_c   31.23600000
_cell_angle_alpha   90.00000000
_cell_angle_beta   90.00000000
_cell_angle_gamma   90.00000000
_symmetry_Int_Tables_number   1
_chemical_formula_structural   Cu5H22C38S3N2O21
_chemical_formula_sum   'Cu40 H176 C304 S24 N16 O168'
_cell_volume   27508.53890102
_cell_formula_units_Z   8
loop_
 _symmetry_equiv_pos_site_id
 _symmetry_equiv_pos_as_xyz
  1  'x, y, z'
loop_
 _atom_site_type_symbol
 _atom_site_label
 _atom_site_symmetry_multiplicity
 _atom_site_fract_x
 _atom_site_fract_y
 _atom_site_fract_z
 _atom_site_occupancy
  Cu  Cu0  1  0.20036000  1.00000000  0.50000000  1
  Cu  Cu1  1  0.29964000  1.00000000  0.50000000  1
  Cu  Cu2  1  0.70036000  1.00000000  0.50000000  1
  Cu  Cu3  1  0.79964000  1.00000000  0.50000000  1
  Cu  Cu4  1  0.24561000  0.02158000  0.40859000  1
  Cu  Cu5  1  0.75439000  0.02158000  0.40859000  1
  Cu  Cu6  1  0.25439000  0.09141000  0.47842000  1
  Cu  Cu7  1  0.74561000  0.09141000  0.47842000  1
  Cu  Cu8  1  0.50000000  0.10974000  0.86940000  1
  Cu  Cu9  1  0.00000000  0.13060000  0.10974000  1
  Cu  Cu10  1  0.50000000  0.16698000  0.80753000  1
  Cu  Cu11  1  0.00000000  0.19247000  0.16698000  1
  Cu  Cu12  1  0.00000000  0.30753000  0.66698000  1
  Cu  Cu13  1  0.50000000  0.33302000  0.30753000  1
  Cu  Cu14  1  0.00000000  0.36940000  0.60974000  1
  Cu  Cu15  1  0.50000000  0.39026000  0.36940000  1
  Cu  Cu16  1  0.25439000  0.40859000  0.97842000  1
  Cu  Cu17  1  0.74561000  0.40859000  0.97842000  1
  Cu  Cu18  1  0.24561000  0.47842000  0.90859000  1
  Cu  Cu19  1  0.75439000  0.47842000  0.90859000  1
  Cu  Cu20  1  0.20036000  0.50000000  0.00000000  1
  Cu  Cu21  1  0.29964000  0.50000000  0.00000000  1
  Cu  Cu22  1  0.70036000  0.50000000  0.00000000  1
  Cu  Cu23  1  0.79964000  0.50000000  0.00000000  1
  Cu  Cu24  1  0.24561000  0.52158000  0.09141000  1
  Cu  Cu25  1  0.75439000  0.52158000  0.09141000  1
  Cu  Cu26  1  0.25439000  0.59141000  0.02158000  1
  Cu  Cu27  1  0.74561000  0.59141000  0.02158000  1
  Cu  Cu28  1  0.50000000  0.60974000  0.63060000  1
  Cu  Cu29  1  0.00000000  0.63060000  0.39026000  1
  Cu  Cu30  1  0.50000000  0.66698000  0.69247000  1
  Cu  Cu31  1  0.00000000  0.69247000  0.33302000  1
  Cu  Cu32  1  0.00000000  0.80753000  0.83302000  1
  Cu  Cu33  1  0.50000000  0.83302000  0.19247000  1
  Cu  Cu34  1  0.00000000  0.86940000  0.89026000  1
  Cu  Cu35  1  0.50000000  0.89026000  0.13060000  1
  Cu  Cu36  1  0.25439000  0.90859000  0.52158000  1
  Cu  Cu37  1  0.74561000  0.90859000  0.52158000  1
  Cu  Cu38  1  0.24561000  0.97842000  0.59141000  1
  Cu  Cu39  1  0.75439000  0.97842000  0.59141000  1
  H  H40  1  0.32620000  0.00730000  0.20820000  1
  H  H41  1  0.67380000  0.00730000  0.20820000  1
  H  H42  1  0.24550000  0.01070000  0.22590000  1
  H  H43  1  0.75450000  0.01070000  0.22590000  1
  H  H44  1  0.16920000  0.01590000  0.20320000  1
  H  H45  1  0.83080000  0.01590000  0.20320000  1
  H  H46  1  0.30160000  0.01640000  0.65930000  1
  H  H47  1  0.69840000  0.01640000  0.65930000  1
  H  H48  1  0.38910000  0.02890000  0.82320000  1
  H  H49  1  0.61090000  0.02890000  0.82320000  1
  H  H50  1  0.18370000  0.04870000  0.33470000  1
  H  H51  1  0.81630000  0.04870000  0.33470000  1
  H  H52  1  0.10840000  0.04920000  0.16420000  1
  H  H53  1  0.89160000  0.04920000  0.16420000  1
  H  H54  1  0.32930000  0.07500000  0.69430000  1
  H  H55  1  0.67070000  0.07500000  0.69430000  1
  H  H56  1  0.16110000  0.10500000  0.29150000  1
  H  H57  1  0.83890000  0.10500000  0.29150000  1
  H  H58  1  0.39130000  0.11080000  0.72670000  1
  H  H59  1  0.60870000  0.11080000  0.72670000  1
  H  H60  1  0.10170000  0.13890000  0.25440000  1
  H  H61  1  0.89830000  0.13890000  0.25440000  1
  H  H62  1  0.19840000  0.15930000  0.51640000  1
  H  H63  1  0.80160000  0.15930000  0.51640000  1
  H  H64  1  0.39160000  0.16420000  0.95080000  1
  H  H65  1  0.60840000  0.16420000  0.95080000  1
  H  H66  1  0.31630000  0.16530000  0.45130000  1
  H  H67  1  0.68370000  0.16530000  0.45130000  1
  H  H68  1  0.11090000  0.17680000  0.02890000  1
  H  H69  1  0.88910000  0.17680000  0.02890000  1
  H  H70  1  0.17070000  0.19430000  0.57500000  1
  H  H71  1  0.82930000  0.19430000  0.57500000  1
  H  H72  1  0.33080000  0.20320000  0.98410000  1
  H  H73  1  0.66920000  0.20320000  0.98410000  1
  H  H74  1  0.17380000  0.20820000  0.99270000  1
  H  H75  1  0.82620000  0.20820000  0.99270000  1
  H  H76  1  0.33890000  0.20850000  0.39500000  1
  H  H77  1  0.66110000  0.20850000  0.39500000  1
  H  H78  1  0.25450000  0.22590000  0.98930000  1
  H  H79  1  0.74550000  0.22590000  0.98930000  1
  H  H80  1  0.10870000  0.22670000  0.61080000  1
  H  H81  1  0.89130000  0.22670000  0.61080000  1
  H  H82  1  0.39830000  0.24560000  0.36110000  1
  H  H83  1  0.60170000  0.24560000  0.36110000  1
  H  H84  1  0.39830000  0.25440000  0.86110000  1
  H  H85  1  0.60170000  0.25440000  0.86110000  1
  H  H86  1  0.10870000  0.27330000  0.11080000  1
  H  H87  1  0.89130000  0.27330000  0.11080000  1
  H  H88  1  0.25450000  0.27410000  0.48930000  1
  H  H89  1  0.74550000  0.27410000  0.48930000  1
  H  H90  1  0.33890000  0.29150000  0.89500000  1
  H  H91  1  0.66110000  0.29150000  0.89500000  1
  H  H92  1  0.17380000  0.29180000  0.49270000  1
  H  H93  1  0.82620000  0.29180000  0.49270000  1
  H  H94  1  0.33080000  0.29680000  0.48410000  1
  H  H95  1  0.66920000  0.29680000  0.48410000  1
  H  H96  1  0.17070000  0.30570000  0.07500000  1
  H  H97  1  0.82930000  0.30570000  0.07500000  1
  H  H98  1  0.11090000  0.32320000  0.52890000  1
  H  H99  1  0.88910000  0.32320000  0.52890000  1
  H  H100  1  0.31630000  0.33470000  0.95130000  1
  H  H101  1  0.68370000  0.33470000  0.95130000  1
  H  H102  1  0.39160000  0.33580000  0.45080000  1
  H  H103  1  0.60840000  0.33580000  0.45080000  1
  H  H104  1  0.19840000  0.34070000  0.01640000  1
  H  H105  1  0.80160000  0.34070000  0.01640000  1
  H  H106  1  0.10170000  0.36110000  0.75440000  1
  H  H107  1  0.89830000  0.36110000  0.75440000  1
  H  H108  1  0.39130000  0.38920000  0.22670000  1
  H  H109  1  0.60870000  0.38920000  0.22670000  1
  H  H110  1  0.16110000  0.39500000  0.79150000  1
  H  H111  1  0.83890000  0.39500000  0.79150000  1
  H  H112  1  0.32930000  0.42500000  0.19430000  1
  H  H113  1  0.67070000  0.42500000  0.19430000  1
  H  H114  1  0.10840000  0.45080000  0.66420000  1
  H  H115  1  0.89160000  0.45080000  0.66420000  1
  H  H116  1  0.18370000  0.45130000  0.83470000  1
  H  H117  1  0.81630000  0.45130000  0.83470000  1
  H  H118  1  0.38910000  0.47110000  0.32320000  1
  H  H119  1  0.61090000  0.47110000  0.32320000  1
  H  H120  1  0.30160000  0.48360000  0.15930000  1
  H  H121  1  0.69840000  0.48360000  0.15930000  1
  H  H122  1  0.16920000  0.48410000  0.70320000  1
  H  H123  1  0.83080000  0.48410000  0.70320000  1
  H  H124  1  0.24550000  0.48930000  0.72590000  1
  H  H125  1  0.75450000  0.48930000  0.72590000  1
  H  H126  1  0.32620000  0.49270000  0.70820000  1
  H  H127  1  0.67380000  0.49270000  0.70820000  1
  H  H128  1  0.32620000  0.50730000  0.29180000  1
  H  H129  1  0.67380000  0.50730000  0.29180000  1
  H  H130  1  0.24550000  0.51070000  0.27410000  1
  H  H131  1  0.75450000  0.51070000  0.27410000  1
  H  H132  1  0.16920000  0.51590000  0.29680000  1
  H  H133  1  0.83080000  0.51590000  0.29680000  1
  H  H134  1  0.30160000  0.51640000  0.84070000  1
  H  H135  1  0.69840000  0.51640000  0.84070000  1
  H  H136  1  0.38910000  0.52890000  0.67680000  1
  H  H137  1  0.61090000  0.52890000  0.67680000  1
  H  H138  1  0.18370000  0.54870000  0.16530000  1
  H  H139  1  0.81630000  0.54870000  0.16530000  1
  H  H140  1  0.10840000  0.54920000  0.33580000  1
  H  H141  1  0.89160000  0.54920000  0.33580000  1
  H  H142  1  0.32930000  0.57500000  0.80570000  1
  H  H143  1  0.67070000  0.57500000  0.80570000  1
  H  H144  1  0.16110000  0.60500000  0.20850000  1
  H  H145  1  0.83890000  0.60500000  0.20850000  1
  H  H146  1  0.39130000  0.61080000  0.77330000  1
  H  H147  1  0.60870000  0.61080000  0.77330000  1
  H  H148  1  0.10170000  0.63890000  0.24560000  1
  H  H149  1  0.89830000  0.63890000  0.24560000  1
  H  H150  1  0.19840000  0.65930000  0.98360000  1
  H  H151  1  0.80160000  0.65930000  0.98360000  1
  H  H152  1  0.39160000  0.66420000  0.54920000  1
  H  H153  1  0.60840000  0.66420000  0.54920000  1
  H  H154  1  0.31630000  0.66530000  0.04870000  1
  H  H155  1  0.68370000  0.66530000  0.04870000  1
  H  H156  1  0.11090000  0.67680000  0.47110000  1
  H  H157  1  0.88910000  0.67680000  0.47110000  1
  H  H158  1  0.17070000  0.69430000  0.92500000  1
  H  H159  1  0.82930000  0.69430000  0.92500000  1
  H  H160  1  0.33080000  0.70320000  0.51590000  1
  H  H161  1  0.66920000  0.70320000  0.51590000  1
  H  H162  1  0.17380000  0.70820000  0.50730000  1
  H  H163  1  0.82620000  0.70820000  0.50730000  1
  H  H164  1  0.33890000  0.70850000  0.10500000  1
  H  H165  1  0.66110000  0.70850000  0.10500000  1
  H  H166  1  0.25450000  0.72590000  0.51070000  1
  H  H167  1  0.74550000  0.72590000  0.51070000  1
  H  H168  1  0.10870000  0.72670000  0.88920000  1
  H  H169  1  0.89130000  0.72670000  0.88920000  1
  H  H170  1  0.39830000  0.74560000  0.13890000  1
  H  H171  1  0.60170000  0.74560000  0.13890000  1
  H  H172  1  0.39830000  0.75440000  0.63890000  1
  H  H173  1  0.60170000  0.75440000  0.63890000  1
  H  H174  1  0.10870000  0.77330000  0.38920000  1
  H  H175  1  0.89130000  0.77330000  0.38920000  1
  H  H176  1  0.25450000  0.77410000  0.01070000  1
  H  H177  1  0.74550000  0.77410000  0.01070000  1
  H  H178  1  0.33890000  0.79150000  0.60500000  1
  H  H179  1  0.66110000  0.79150000  0.60500000  1
  H  H180  1  0.17380000  0.79180000  0.00730000  1
  H  H181  1  0.82620000  0.79180000  0.00730000  1
  H  H182  1  0.33080000  0.79680000  0.01590000  1
  H  H183  1  0.66920000  0.79680000  0.01590000  1
  H  H184  1  0.17070000  0.80570000  0.42500000  1
  H  H185  1  0.82930000  0.80570000  0.42500000  1
  H  H186  1  0.11090000  0.82320000  0.97110000  1
  H  H187  1  0.88910000  0.82320000  0.97110000  1
  H  H188  1  0.31630000  0.83470000  0.54870000  1
  H  H189  1  0.68370000  0.83470000  0.54870000  1
  H  H190  1  0.39160000  0.83580000  0.04920000  1
  H  H191  1  0.60840000  0.83580000  0.04920000  1
  H  H192  1  0.19840000  0.84070000  0.48360000  1
  H  H193  1  0.80160000  0.84070000  0.48360000  1
  H  H194  1  0.10170000  0.86110000  0.74560000  1
  H  H195  1  0.89830000  0.86110000  0.74560000  1
  H  H196  1  0.39130000  0.88920000  0.27330000  1
  H  H197  1  0.60870000  0.88920000  0.27330000  1
  H  H198  1  0.16110000  0.89500000  0.70850000  1
  H  H199  1  0.83890000  0.89500000  0.70850000  1
  H  H200  1  0.32930000  0.92500000  0.30570000  1
  H  H201  1  0.67070000  0.92500000  0.30570000  1
  H  H202  1  0.10840000  0.95080000  0.83580000  1
  H  H203  1  0.89160000  0.95080000  0.83580000  1
  H  H204  1  0.18370000  0.95130000  0.66530000  1
  H  H205  1  0.81630000  0.95130000  0.66530000  1
  H  H206  1  0.38910000  0.97110000  0.17680000  1
  H  H207  1  0.61090000  0.97110000  0.17680000  1
  H  H208  1  0.30160000  0.98360000  0.34070000  1
  H  H209  1  0.69840000  0.98360000  0.34070000  1
  H  H210  1  0.16920000  0.98410000  0.79680000  1
  H  H211  1  0.83080000  0.98410000  0.79680000  1
  H  H212  1  0.24550000  0.98930000  0.77410000  1
  H  H213  1  0.75450000  0.98930000  0.77410000  1
  H  H214  1  0.32620000  0.99270000  0.79180000  1
  H  H215  1  0.67380000  0.99270000  0.79180000  1
  C  C216  1  0.27790000  0.00370000  0.67580000  1
  C  C217  1  0.72210000  0.00370000  0.67580000  1
  C  C218  1  0.28040000  0.00730000  0.72031000  1
  C  C219  1  0.71960000  0.00730000  0.72031000  1
  C  C220  1  0.24460000  0.01220000  0.25560000  1
  C  C221  1  0.75540000  0.01220000  0.25560000  1
  C  C222  1  0.33890000  0.01660000  0.77830000  1
  C  C223  1  0.66110000  0.01660000  0.77830000  1
  C  C224  1  0.32070000  0.02980000  0.74070000  1
  C  C225  1  0.67930000  0.02980000  0.74070000  1
  C  C226  1  0.20740000  0.03420000  0.27600000  1
  C  C227  1  0.79260000  0.03420000  0.27600000  1
  C  C228  1  0.20830000  0.03500000  0.32044000  1
  C  C229  1  0.79170000  0.03500000  0.32044000  1
  C  C230  1  0.37690000  0.03870000  0.79740000  1
  C  C231  1  0.62310000  0.03870000  0.79740000  1
  C  C232  1  0.15530000  0.04070000  0.21380000  1
  C  C233  1  0.84470000  0.04070000  0.21380000  1
  C  C234  1  0.17020000  0.05670000  0.25171000  1
  C  C235  1  0.82980000  0.05670000  0.25171000  1
  C  C236  1  0.11890000  0.06100000  0.18980000  1
  C  C237  1  0.88110000  0.06100000  0.18980000  1
  C  C238  1  0.34090000  0.06570000  0.72060000  1
  C  C239  1  0.65910000  0.06570000  0.72060000  1
  C  C240  1  0.39600000  0.07390000  0.77918000  1
  C  C241  1  0.60400000  0.07390000  0.77918000  1
  C  C242  1  0.37810000  0.08710000  0.74010000  1
  C  C243  1  0.62190000  0.08710000  0.74010000  1
  C  C244  1  0.15050000  0.09330000  0.26590000  1
  C  C245  1  0.84950000  0.09330000  0.26590000  1
  C  C246  1  0.43560000  0.09770000  0.79970000  1
  C  C247  1  0.56440000  0.09770000  0.79970000  1
  C  C248  1  0.09930000  0.09900000  0.20520000  1
  C  C249  1  0.90070000  0.09900000  0.20520000  1
  C  C250  1  0.11500000  0.11400000  0.24320000  1
  C  C251  1  0.88500000  0.11400000  0.24320000  1
  C  C252  1  0.06320000  0.12180000  0.18020000  1
  C  C253  1  0.93680000  0.12180000  0.18020000  1
  C  C254  1  0.22210000  0.17580000  0.50370000  1
  C  C255  1  0.77790000  0.17580000  0.50370000  1
  C  C256  1  0.29170000  0.17956000  0.46500000  1
  C  C257  1  0.70830000  0.17956000  0.46500000  1
  C  C258  1  0.43680000  0.18020000  0.87820000  1
  C  C259  1  0.56320000  0.18020000  0.87820000  1
  C  C260  1  0.38110000  0.18980000  0.93900000  1
  C  C261  1  0.61890000  0.18980000  0.93900000  1
  C  C262  1  0.06440000  0.20030000  0.09770000  1
  C  C263  1  0.93560000  0.20030000  0.09770000  1
  C  C264  1  0.12310000  0.20260000  0.03870000  1
  C  C265  1  0.87690000  0.20260000  0.03870000  1
  C  C266  1  0.40070000  0.20520000  0.90100000  1
  C  C267  1  0.59930000  0.20520000  0.90100000  1
  C  C268  1  0.34470000  0.21380000  0.95930000  1
  C  C269  1  0.65530000  0.21380000  0.95930000  1
  C  C270  1  0.21960000  0.22031000  0.50730000  1
  C  C271  1  0.78040000  0.22031000  0.50730000  1
  C  C272  1  0.15910000  0.22060000  0.56570000  1
  C  C273  1  0.84090000  0.22060000  0.56570000  1
  C  C274  1  0.10400000  0.22082000  0.07390000  1
  C  C275  1  0.89600000  0.22082000  0.07390000  1
  C  C276  1  0.16110000  0.22170000  0.01660000  1
  C  C277  1  0.83890000  0.22170000  0.01660000  1
  C  C278  1  0.29260000  0.22400000  0.46580000  1
  C  C279  1  0.70740000  0.22400000  0.46580000  1
  C  C280  1  0.34950000  0.23410000  0.40670000  1
  C  C281  1  0.65050000  0.23410000  0.40670000  1
  C  C282  1  0.12190000  0.24010000  0.58710000  1
  C  C283  1  0.87810000  0.24010000  0.58710000  1
  C  C284  1  0.17930000  0.24070000  0.52980000  1
  C  C285  1  0.82070000  0.24070000  0.52980000  1
  C  C286  1  0.38500000  0.24320000  0.88600000  1
  C  C287  1  0.61500000  0.24320000  0.88600000  1
  C  C288  1  0.25540000  0.24440000  0.48780000  1
  C  C289  1  0.74460000  0.24440000  0.48780000  1
  C  C290  1  0.32980000  0.24829000  0.44330000  1
  C  C291  1  0.67020000  0.24829000  0.44330000  1
  C  C292  1  0.32980000  0.25171000  0.94330000  1
  C  C293  1  0.67020000  0.25171000  0.94330000  1
  C  C294  1  0.25540000  0.25560000  0.98780000  1
  C  C295  1  0.74460000  0.25560000  0.98780000  1
  C  C296  1  0.38500000  0.25680000  0.38600000  1
  C  C297  1  0.61500000  0.25680000  0.38600000  1
  C  C298  1  0.17930000  0.25930000  0.02980000  1
  C  C299  1  0.82070000  0.25930000  0.02980000  1
  C  C300  1  0.12190000  0.25990000  0.08710000  1
  C  C301  1  0.87810000  0.25990000  0.08710000  1
  C  C302  1  0.34950000  0.26590000  0.90670000  1
  C  C303  1  0.65050000  0.26590000  0.90670000  1
  C  C304  1  0.29260000  0.27600000  0.96580000  1
  C  C305  1  0.70740000  0.27600000  0.96580000  1
  C  C306  1  0.16110000  0.27830000  0.51660000  1
  C  C307  1  0.83890000  0.27830000  0.51660000  1
  C  C308  1  0.10400000  0.27918000  0.57390000  1
  C  C309  1  0.89600000  0.27918000  0.57390000  1
  C  C310  1  0.15910000  0.27940000  0.06570000  1
  C  C311  1  0.84090000  0.27940000  0.06570000  1
  C  C312  1  0.21960000  0.27969000  0.00730000  1
  C  C313  1  0.78040000  0.27969000  0.00730000  1
  C  C314  1  0.34470000  0.28620000  0.45930000  1
  C  C315  1  0.65530000  0.28620000  0.45930000  1
  C  C316  1  0.40070000  0.29480000  0.40100000  1
  C  C317  1  0.59930000  0.29480000  0.40100000  1
  C  C318  1  0.12310000  0.29740000  0.53870000  1
  C  C319  1  0.87690000  0.29740000  0.53870000  1
  C  C320  1  0.06440000  0.29970000  0.59770000  1
  C  C321  1  0.93560000  0.29970000  0.59770000  1
  C  C322  1  0.38110000  0.31020000  0.43900000  1
  C  C323  1  0.61890000  0.31020000  0.43900000  1
  C  C324  1  0.43680000  0.31980000  0.37820000  1
  C  C325  1  0.56320000  0.31980000  0.37820000  1
  C  C326  1  0.29170000  0.32044000  0.96500000  1
  C  C327  1  0.70830000  0.32044000  0.96500000  1
  C  C328  1  0.22210000  0.32420000  0.00370000  1
  C  C329  1  0.77790000  0.32420000  0.00370000  1
  C  C330  1  0.06320000  0.37820000  0.68020000  1
  C  C331  1  0.93680000  0.37820000  0.68020000  1
  C  C332  1  0.11500000  0.38600000  0.74320000  1
  C  C333  1  0.88500000  0.38600000  0.74320000  1
  C  C334  1  0.09930000  0.40100000  0.70520000  1
  C  C335  1  0.90070000  0.40100000  0.70520000  1
  C  C336  1  0.43560000  0.40230000  0.29970000  1
  C  C337  1  0.56440000  0.40230000  0.29970000  1
  C  C338  1  0.15050000  0.40670000  0.76590000  1
  C  C339  1  0.84950000  0.40670000  0.76590000  1
  C  C340  1  0.37810000  0.41290000  0.24010000  1
  C  C341  1  0.62190000  0.41290000  0.24010000  1
  C  C342  1  0.39600000  0.42610000  0.27918000  1
  C  C343  1  0.60400000  0.42610000  0.27918000  1
  C  C344  1  0.34090000  0.43430000  0.22060000  1
  C  C345  1  0.65910000  0.43430000  0.22060000  1
  C  C346  1  0.11890000  0.43900000  0.68980000  1
  C  C347  1  0.88110000  0.43900000  0.68980000  1
  C  C348  1  0.17020000  0.44330000  0.75171000  1
  C  C349  1  0.82980000  0.44330000  0.75171000  1
  C  C350  1  0.15530000  0.45930000  0.71380000  1
  C  C351  1  0.84470000  0.45930000  0.71380000  1
  C  C352  1  0.37690000  0.46130000  0.29740000  1
  C  C353  1  0.62310000  0.46130000  0.29740000  1
  C  C354  1  0.20830000  0.46500000  0.82044000  1
  C  C355  1  0.79170000  0.46500000  0.82044000  1
  C  C356  1  0.20740000  0.46580000  0.77600000  1
  C  C357  1  0.79260000  0.46580000  0.77600000  1
  C  C358  1  0.32070000  0.47020000  0.24070000  1
  C  C359  1  0.67930000  0.47020000  0.24070000  1
  C  C360  1  0.33890000  0.48340000  0.27830000  1
  C  C361  1  0.66110000  0.48340000  0.27830000  1
  C  C362  1  0.24460000  0.48780000  0.75560000  1
  C  C363  1  0.75540000  0.48780000  0.75560000  1
  C  C364  1  0.28040000  0.49270000  0.22031000  1
  C  C365  1  0.71960000  0.49270000  0.22031000  1
  C  C366  1  0.27790000  0.49630000  0.17580000  1
  C  C367  1  0.72210000  0.49630000  0.17580000  1
  C  C368  1  0.27790000  0.50370000  0.82420000  1
  C  C369  1  0.72210000  0.50370000  0.82420000  1
  C  C370  1  0.28040000  0.50730000  0.77969000  1
  C  C371  1  0.71960000  0.50730000  0.77969000  1
  C  C372  1  0.24460000  0.51220000  0.24440000  1
  C  C373  1  0.75540000  0.51220000  0.24440000  1
  C  C374  1  0.33890000  0.51660000  0.72170000  1
  C  C375  1  0.66110000  0.51660000  0.72170000  1
  C  C376  1  0.32070000  0.52980000  0.75930000  1
  C  C377  1  0.67930000  0.52980000  0.75930000  1
  C  C378  1  0.20740000  0.53420000  0.22400000  1
  C  C379  1  0.79260000  0.53420000  0.22400000  1
  C  C380  1  0.20830000  0.53500000  0.17956000  1
  C  C381  1  0.79170000  0.53500000  0.17956000  1
  C  C382  1  0.37690000  0.53870000  0.70260000  1
  C  C383  1  0.62310000  0.53870000  0.70260000  1
  C  C384  1  0.15530000  0.54070000  0.28620000  1
  C  C385  1  0.84470000  0.54070000  0.28620000  1
  C  C386  1  0.17020000  0.55670000  0.24829000  1
  C  C387  1  0.82980000  0.55670000  0.24829000  1
  C  C388  1  0.11890000  0.56100000  0.31020000  1
  C  C389  1  0.88110000  0.56100000  0.31020000  1
  C  C390  1  0.34090000  0.56570000  0.77940000  1
  C  C391  1  0.65910000  0.56570000  0.77940000  1
  C  C392  1  0.39600000  0.57390000  0.72082000  1
  C  C393  1  0.60400000  0.57390000  0.72082000  1
  C  C394  1  0.37810000  0.58710000  0.75990000  1
  C  C395  1  0.62190000  0.58710000  0.75990000  1
  C  C396  1  0.15050000  0.59330000  0.23410000  1
  C  C397  1  0.84950000  0.59330000  0.23410000  1
  C  C398  1  0.43560000  0.59770000  0.70030000  1
  C  C399  1  0.56440000  0.59770000  0.70030000  1
  C  C400  1  0.09930000  0.59900000  0.29480000  1
  C  C401  1  0.90070000  0.59900000  0.29480000  1
  C  C402  1  0.11500000  0.61400000  0.25680000  1
  C  C403  1  0.88500000  0.61400000  0.25680000  1
  C  C404  1  0.06320000  0.62180000  0.31980000  1
  C  C405  1  0.93680000  0.62180000  0.31980000  1
  C  C406  1  0.22210000  0.67580000  0.99630000  1
  C  C407  1  0.77790000  0.67580000  0.99630000  1
  C  C408  1  0.29170000  0.67956000  0.03500000  1
  C  C409  1  0.70830000  0.67956000  0.03500000  1
  C  C410  1  0.43680000  0.68020000  0.62180000  1
  C  C411  1  0.56320000  0.68020000  0.62180000  1
  C  C412  1  0.38110000  0.68980000  0.56100000  1
  C  C413  1  0.61890000  0.68980000  0.56100000  1
  C  C414  1  0.06440000  0.70030000  0.40230000  1
  C  C415  1  0.93560000  0.70030000  0.40230000  1
  C  C416  1  0.12310000  0.70260000  0.46130000  1
  C  C417  1  0.87690000  0.70260000  0.46130000  1
  C  C418  1  0.40070000  0.70520000  0.59900000  1
  C  C419  1  0.59930000  0.70520000  0.59900000  1
  C  C420  1  0.34470000  0.71380000  0.54070000  1
  C  C421  1  0.65530000  0.71380000  0.54070000  1
  C  C422  1  0.21960000  0.72031000  0.99270000  1
  C  C423  1  0.78040000  0.72031000  0.99270000  1
  C  C424  1  0.15910000  0.72060000  0.93430000  1
  C  C425  1  0.84090000  0.72060000  0.93430000  1
  C  C426  1  0.10400000  0.72082000  0.42610000  1
  C  C427  1  0.89600000  0.72082000  0.42610000  1
  C  C428  1  0.16110000  0.72170000  0.48340000  1
  C  C429  1  0.83890000  0.72170000  0.48340000  1
  C  C430  1  0.29260000  0.72400000  0.03420000  1
  C  C431  1  0.70740000  0.72400000  0.03420000  1
  C  C432  1  0.34950000  0.73410000  0.09330000  1
  C  C433  1  0.65050000  0.73410000  0.09330000  1
  C  C434  1  0.12190000  0.74010000  0.91290000  1
  C  C435  1  0.87810000  0.74010000  0.91290000  1
  C  C436  1  0.17930000  0.74070000  0.97020000  1
  C  C437  1  0.82070000  0.74070000  0.97020000  1
  C  C438  1  0.38500000  0.74320000  0.61400000  1
  C  C439  1  0.61500000  0.74320000  0.61400000  1
  C  C440  1  0.25540000  0.74440000  0.01220000  1
  C  C441  1  0.74460000  0.74440000  0.01220000  1
  C  C442  1  0.32980000  0.74829000  0.05670000  1
  C  C443  1  0.67020000  0.74829000  0.05670000  1
  C  C444  1  0.32980000  0.75171000  0.55670000  1
  C  C445  1  0.67020000  0.75171000  0.55670000  1
  C  C446  1  0.25540000  0.75560000  0.51220000  1
  C  C447  1  0.74460000  0.75560000  0.51220000  1
  C  C448  1  0.38500000  0.75680000  0.11400000  1
  C  C449  1  0.61500000  0.75680000  0.11400000  1
  C  C450  1  0.17930000  0.75930000  0.47020000  1
  C  C451  1  0.82070000  0.75930000  0.47020000  1
  C  C452  1  0.12190000  0.75990000  0.41290000  1
  C  C453  1  0.87810000  0.75990000  0.41290000  1
  C  C454  1  0.34950000  0.76590000  0.59330000  1
  C  C455  1  0.65050000  0.76590000  0.59330000  1
  C  C456  1  0.29260000  0.77600000  0.53420000  1
  C  C457  1  0.70740000  0.77600000  0.53420000  1
  C  C458  1  0.16110000  0.77830000  0.98340000  1
  C  C459  1  0.83890000  0.77830000  0.98340000  1
  C  C460  1  0.10400000  0.77918000  0.92610000  1
  C  C461  1  0.89600000  0.77918000  0.92610000  1
  C  C462  1  0.15910000  0.77940000  0.43430000  1
  C  C463  1  0.84090000  0.77940000  0.43430000  1
  C  C464  1  0.21960000  0.77969000  0.49270000  1
  C  C465  1  0.78040000  0.77969000  0.49270000  1
  C  C466  1  0.34470000  0.78620000  0.04070000  1
  C  C467  1  0.65530000  0.78620000  0.04070000  1
  C  C468  1  0.40070000  0.79480000  0.09900000  1
  C  C469  1  0.59930000  0.79480000  0.09900000  1
  C  C470  1  0.12310000  0.79740000  0.96130000  1
  C  C471  1  0.87690000  0.79740000  0.96130000  1
  C  C472  1  0.06440000  0.79970000  0.90230000  1
  C  C473  1  0.93560000  0.79970000  0.90230000  1
  C  C474  1  0.38110000  0.81020000  0.06100000  1
  C  C475  1  0.61890000  0.81020000  0.06100000  1
  C  C476  1  0.43680000  0.81980000  0.12180000  1
  C  C477  1  0.56320000  0.81980000  0.12180000  1
  C  C478  1  0.29170000  0.82044000  0.53500000  1
  C  C479  1  0.70830000  0.82044000  0.53500000  1
  C  C480  1  0.22210000  0.82420000  0.49630000  1
  C  C481  1  0.77790000  0.82420000  0.49630000  1
  C  C482  1  0.06320000  0.87820000  0.81980000  1
  C  C483  1  0.93680000  0.87820000  0.81980000  1
  C  C484  1  0.11500000  0.88600000  0.75680000  1
  C  C485  1  0.88500000  0.88600000  0.75680000  1
  C  C486  1  0.09930000  0.90100000  0.79480000  1
  C  C487  1  0.90070000  0.90100000  0.79480000  1
  C  C488  1  0.43560000  0.90230000  0.20030000  1
  C  C489  1  0.56440000  0.90230000  0.20030000  1
  C  C490  1  0.15050000  0.90670000  0.73410000  1
  C  C491  1  0.84950000  0.90670000  0.73410000  1
  C  C492  1  0.37810000  0.91290000  0.25990000  1
  C  C493  1  0.62190000  0.91290000  0.25990000  1
  C  C494  1  0.39600000  0.92610000  0.22082000  1
  C  C495  1  0.60400000  0.92610000  0.22082000  1
  C  C496  1  0.34090000  0.93430000  0.27940000  1
  C  C497  1  0.65910000  0.93430000  0.27940000  1
  C  C498  1  0.11890000  0.93900000  0.81020000  1
  C  C499  1  0.88110000  0.93900000  0.81020000  1
  C  C500  1  0.17020000  0.94330000  0.74829000  1
  C  C501  1  0.82980000  0.94330000  0.74829000  1
  C  C502  1  0.15530000  0.95930000  0.78620000  1
  C  C503  1  0.84470000  0.95930000  0.78620000  1
  C  C504  1  0.37690000  0.96130000  0.20260000  1
  C  C505  1  0.62310000  0.96130000  0.20260000  1
  C  C506  1  0.20830000  0.96500000  0.67956000  1
  C  C507  1  0.79170000  0.96500000  0.67956000  1
  C  C508  1  0.20740000  0.96580000  0.72400000  1
  C  C509  1  0.79260000  0.96580000  0.72400000  1
  C  C510  1  0.32070000  0.97020000  0.25930000  1
  C  C511  1  0.67930000  0.97020000  0.25930000  1
  C  C512  1  0.33890000  0.98340000  0.22170000  1
  C  C513  1  0.66110000  0.98340000  0.22170000  1
  C  C514  1  0.24460000  0.98780000  0.74440000  1
  C  C515  1  0.75540000  0.98780000  0.74440000  1
  C  C516  1  0.28040000  0.99270000  0.27969000  1
  C  C517  1  0.71960000  0.99270000  0.27969000  1
  C  C518  1  0.27790000  0.99630000  0.32420000  1
  C  C519  1  0.72210000  0.99630000  0.32420000  1
  S  S520  1  0.34416000  0.05600000  0.43211000  1
  S  S521  1  0.65584000  0.05600000  0.43211000  1
  S  S522  1  0.15584000  0.06789000  0.44400000  1
  S  S523  1  0.84416000  0.06789000  0.44400000  1
  S  S524  1  0.25000000  0.08055000  0.58055000  1
  S  S525  1  0.75000000  0.08055000  0.58055000  1
  S  S526  1  0.25000000  0.41945000  0.08055000  1
  S  S527  1  0.75000000  0.41945000  0.08055000  1
  S  S528  1  0.15584000  0.43211000  0.94400000  1
  S  S529  1  0.84416000  0.43211000  0.94400000  1
  S  S530  1  0.34416000  0.44400000  0.93211000  1
  S  S531  1  0.65584000  0.44400000  0.93211000  1
  S  S532  1  0.34416000  0.55600000  0.06789000  1
  S  S533  1  0.65584000  0.55600000  0.06789000  1
  S  S534  1  0.15584000  0.56789000  0.05600000  1
  S  S535  1  0.84416000  0.56789000  0.05600000  1
  S  S536  1  0.25000000  0.58055000  0.91945000  1
  S  S537  1  0.75000000  0.58055000  0.91945000  1
  S  S538  1  0.25000000  0.91945000  0.41945000  1
  S  S539  1  0.75000000  0.91945000  0.41945000  1
  S  S540  1  0.15584000  0.93211000  0.55600000  1
  S  S541  1  0.84416000  0.93211000  0.55600000  1
  S  S542  1  0.34416000  0.94400000  0.56789000  1
  S  S543  1  0.65584000  0.94400000  0.56789000  1
  N  N544  1  0.24286000  0.01703000  0.34408000  1
  N  N545  1  0.75714000  0.01703000  0.34408000  1
  N  N546  1  0.25714000  0.15592000  0.48297000  1
  N  N547  1  0.74286000  0.15592000  0.48297000  1
  N  N548  1  0.25714000  0.34408000  0.98297000  1
  N  N549  1  0.74286000  0.34408000  0.98297000  1
  N  N550  1  0.24286000  0.48297000  0.84408000  1
  N  N551  1  0.75714000  0.48297000  0.84408000  1
  N  N552  1  0.24286000  0.51703000  0.15592000  1
  N  N553  1  0.75714000  0.51703000  0.15592000  1
  N  N554  1  0.25714000  0.65592000  0.01703000  1
  N  N555  1  0.74286000  0.65592000  0.01703000  1
  N  N556  1  0.25714000  0.84408000  0.51703000  1
  N  N557  1  0.74286000  0.84408000  0.51703000  1
  N  N558  1  0.24286000  0.98297000  0.65592000  1
  N  N559  1  0.75714000  0.98297000  0.65592000  1
  O  O560  1  0.35192000  0.02586000  0.46813000  1
  O  O561  1  0.64808000  0.02586000  0.46813000  1
  O  O562  1  0.25000000  0.02991000  0.47009000  1
  O  O563  1  0.75000000  0.02991000  0.47009000  1
  O  O564  1  0.14808000  0.03187000  0.47414000  1
  O  O565  1  0.85192000  0.03187000  0.47414000  1
  O  O566  1  0.31434000  0.03438000  0.40016000  1
  O  O567  1  0.68566000  0.03438000  0.40016000  1
  O  O568  1  0.22080000  0.04106000  0.58100000  1
  O  O569  1  0.77920000  0.04106000  0.58100000  1
  O  O570  1  0.18069000  0.05240000  0.40650000  1
  O  O571  1  0.81931000  0.05240000  0.40650000  1
  O  O572  1  0.38886000  0.06743000  0.41386000  1
  O  O573  1  0.61114000  0.06743000  0.41386000  1
  O  O574  1  0.27920000  0.08100000  0.54106000  1
  O  O575  1  0.72080000  0.08100000  0.54106000  1
  O  O576  1  0.28180000  0.08140000  0.61747000  1
  O  O577  1  0.71820000  0.08140000  0.61747000  1
  O  O578  1  0.45027000  0.08267000  0.83461000  1
  O  O579  1  0.54973000  0.08267000  0.83461000  1
  O  O580  1  0.11114000  0.08614000  0.43257000  1
  O  O581  1  0.88886000  0.08614000  0.43257000  1
  O  O582  1  0.31931000  0.09350000  0.44760000  1
  O  O583  1  0.68069000  0.09350000  0.44760000  1
  O  O584  1  0.18566000  0.09984000  0.46562000  1
  O  O585  1  0.81434000  0.09984000  0.46562000  1
  O  O586  1  0.04909000  0.10478000  0.14601000  1
  O  O587  1  0.95091000  0.10478000  0.14601000  1
  O  O588  1  0.21820000  0.11747000  0.58140000  1
  O  O589  1  0.78180000  0.11747000  0.58140000  1
  O  O590  1  0.45075000  0.13082000  0.78204000  1
  O  O591  1  0.54925000  0.13082000  0.78204000  1
  O  O592  1  0.45091000  0.14601000  0.89522000  1
  O  O593  1  0.54909000  0.14601000  0.89522000  1
  O  O594  1  0.04884000  0.15695000  0.19510000  1
  O  O595  1  0.95116000  0.15695000  0.19510000  1
  O  O596  1  0.04973000  0.16539000  0.08267000  1
  O  O597  1  0.95027000  0.16539000  0.08267000  1
  O  O598  1  0.45116000  0.19510000  0.84305000  1
  O  O599  1  0.54884000  0.19510000  0.84305000  1
  O  O600  1  0.04925000  0.21796000  0.13082000  1
  O  O601  1  0.95075000  0.21796000  0.13082000  1
  O  O602  1  0.04925000  0.28204000  0.63082000  1
  O  O603  1  0.95075000  0.28204000  0.63082000  1
  O  O604  1  0.45116000  0.30490000  0.34305000  1
  O  O605  1  0.54884000  0.30490000  0.34305000  1
  O  O606  1  0.04973000  0.33461000  0.58267000  1
  O  O607  1  0.95027000  0.33461000  0.58267000  1
  O  O608  1  0.04884000  0.34305000  0.69510000  1
  O  O609  1  0.95116000  0.34305000  0.69510000  1
  O  O610  1  0.45091000  0.35399000  0.39522000  1
  O  O611  1  0.54909000  0.35399000  0.39522000  1
  O  O612  1  0.45075000  0.36918000  0.28204000  1
  O  O613  1  0.54925000  0.36918000  0.28204000  1
  O  O614  1  0.21820000  0.38253000  0.08140000  1
  O  O615  1  0.78180000  0.38253000  0.08140000  1
  O  O616  1  0.04909000  0.39522000  0.64601000  1
  O  O617  1  0.95091000  0.39522000  0.64601000  1
  O  O618  1  0.18566000  0.40016000  0.96562000  1
  O  O619  1  0.81434000  0.40016000  0.96562000  1
  O  O620  1  0.31931000  0.40650000  0.94760000  1
  O  O621  1  0.68069000  0.40650000  0.94760000  1
  O  O622  1  0.11114000  0.41386000  0.93257000  1
  O  O623  1  0.88886000  0.41386000  0.93257000  1
  O  O624  1  0.45027000  0.41733000  0.33461000  1
  O  O625  1  0.54973000  0.41733000  0.33461000  1
  O  O626  1  0.28180000  0.41860000  0.11747000  1
  O  O627  1  0.71820000  0.41860000  0.11747000  1
  O  O628  1  0.27920000  0.41900000  0.04106000  1
  O  O629  1  0.72080000  0.41900000  0.04106000  1
  O  O630  1  0.38886000  0.43257000  0.91386000  1
  O  O631  1  0.61114000  0.43257000  0.91386000  1
  O  O632  1  0.18069000  0.44760000  0.90650000  1
  O  O633  1  0.81931000  0.44760000  0.90650000  1
  O  O634  1  0.22080000  0.45894000  0.08100000  1
  O  O635  1  0.77920000  0.45894000  0.08100000  1
  O  O636  1  0.31434000  0.46562000  0.90016000  1
  O  O637  1  0.68566000  0.46562000  0.90016000  1
  O  O638  1  0.14808000  0.46813000  0.97414000  1
  O  O639  1  0.85192000  0.46813000  0.97414000  1
  O  O640  1  0.25000000  0.47009000  0.97009000  1
  O  O641  1  0.75000000  0.47009000  0.97009000  1
  O  O642  1  0.35192000  0.47414000  0.96813000  1
  O  O643  1  0.64808000  0.47414000  0.96813000  1
  O  O644  1  0.35192000  0.52586000  0.03187000  1
  O  O645  1  0.64808000  0.52586000  0.03187000  1
  O  O646  1  0.25000000  0.52991000  0.02991000  1
  O  O647  1  0.75000000  0.52991000  0.02991000  1
  O  O648  1  0.14808000  0.53187000  0.02586000  1
  O  O649  1  0.85192000  0.53187000  0.02586000  1
  O  O650  1  0.31434000  0.53438000  0.09984000  1
  O  O651  1  0.68566000  0.53438000  0.09984000  1
  O  O652  1  0.22080000  0.54106000  0.91900000  1
  O  O653  1  0.77920000  0.54106000  0.91900000  1
  O  O654  1  0.18069000  0.55240000  0.09350000  1
  O  O655  1  0.81931000  0.55240000  0.09350000  1
  O  O656  1  0.38886000  0.56743000  0.08614000  1
  O  O657  1  0.61114000  0.56743000  0.08614000  1
  O  O658  1  0.27920000  0.58100000  0.95894000  1
  O  O659  1  0.72080000  0.58100000  0.95894000  1
  O  O660  1  0.28180000  0.58140000  0.88253000  1
  O  O661  1  0.71820000  0.58140000  0.88253000  1
  O  O662  1  0.45027000  0.58267000  0.66539000  1
  O  O663  1  0.54973000  0.58267000  0.66539000  1
  O  O664  1  0.11114000  0.58614000  0.06743000  1
  O  O665  1  0.88886000  0.58614000  0.06743000  1
  O  O666  1  0.31931000  0.59350000  0.05240000  1
  O  O667  1  0.68069000  0.59350000  0.05240000  1
  O  O668  1  0.18566000  0.59984000  0.03438000  1
  O  O669  1  0.81434000  0.59984000  0.03438000  1
  O  O670  1  0.04909000  0.60478000  0.35399000  1
  O  O671  1  0.95091000  0.60478000  0.35399000  1
  O  O672  1  0.21820000  0.61747000  0.91860000  1
  O  O673  1  0.78180000  0.61747000  0.91860000  1
  O  O674  1  0.45075000  0.63082000  0.71796000  1
  O  O675  1  0.54925000  0.63082000  0.71796000  1
  O  O676  1  0.45091000  0.64601000  0.60478000  1
  O  O677  1  0.54909000  0.64601000  0.60478000  1
  O  O678  1  0.04884000  0.65695000  0.30490000  1
  O  O679  1  0.95116000  0.65695000  0.30490000  1
  O  O680  1  0.04973000  0.66539000  0.41733000  1
  O  O681  1  0.95027000  0.66539000  0.41733000  1
  O  O682  1  0.45116000  0.69510000  0.65695000  1
  O  O683  1  0.54884000  0.69510000  0.65695000  1
  O  O684  1  0.04925000  0.71796000  0.36918000  1
  O  O685  1  0.95075000  0.71796000  0.36918000  1
  O  O686  1  0.04925000  0.78204000  0.86918000  1
  O  O687  1  0.95075000  0.78204000  0.86918000  1
  O  O688  1  0.45116000  0.80490000  0.15695000  1
  O  O689  1  0.54884000  0.80490000  0.15695000  1
  O  O690  1  0.04973000  0.83461000  0.91733000  1
  O  O691  1  0.95027000  0.83461000  0.91733000  1
  O  O692  1  0.04884000  0.84305000  0.80490000  1
  O  O693  1  0.95116000  0.84305000  0.80490000  1
  O  O694  1  0.45091000  0.85399000  0.10478000  1
  O  O695  1  0.54909000  0.85399000  0.10478000  1
  O  O696  1  0.45075000  0.86918000  0.21796000  1
  O  O697  1  0.54925000  0.86918000  0.21796000  1
  O  O698  1  0.21820000  0.88253000  0.41860000  1
  O  O699  1  0.78180000  0.88253000  0.41860000  1
  O  O700  1  0.04909000  0.89522000  0.85399000  1
  O  O701  1  0.95091000  0.89522000  0.85399000  1
  O  O702  1  0.18566000  0.90016000  0.53438000  1
  O  O703  1  0.81434000  0.90016000  0.53438000  1
  O  O704  1  0.31931000  0.90650000  0.55240000  1
  O  O705  1  0.68069000  0.90650000  0.55240000  1
  O  O706  1  0.11114000  0.91386000  0.56743000  1
  O  O707  1  0.88886000  0.91386000  0.56743000  1
  O  O708  1  0.45027000  0.91733000  0.16539000  1
  O  O709  1  0.54973000  0.91733000  0.16539000  1
  O  O710  1  0.28180000  0.91860000  0.38253000  1
  O  O711  1  0.71820000  0.91860000  0.38253000  1
  O  O712  1  0.27920000  0.91900000  0.45894000  1
  O  O713  1  0.72080000  0.91900000  0.45894000  1
  O  O714  1  0.38886000  0.93257000  0.58614000  1
  O  O715  1  0.61114000  0.93257000  0.58614000  1
  O  O716  1  0.18069000  0.94760000  0.59350000  1
  O  O717  1  0.81931000  0.94760000  0.59350000  1
  O  O718  1  0.22080000  0.95894000  0.41900000  1
  O  O719  1  0.77920000  0.95894000  0.41900000  1
  O  O720  1  0.31434000  0.96562000  0.59984000  1
  O  O721  1  0.68566000  0.96562000  0.59984000  1
  O  O722  1  0.14808000  0.96813000  0.52586000  1
  O  O723  1  0.85192000  0.96813000  0.52586000  1
  O  O724  1  0.25000000  0.97009000  0.52991000  1
  O  O725  1  0.75000000  0.97009000  0.52991000  1
  O  O726  1  0.35192000  0.97414000  0.53187000  1
  O  O727  1  0.64808000  0.97414000  0.53187000  1
