# generated using pymatgen
data_Zn4H33C50NO15
_symmetry_space_group_name_H-M   'P 1'
_cell_length_a   17.56100000
_cell_length_b   41.45900000
_cell_length_c   41.45900000
_cell_angle_alpha   120.00000000
_cell_angle_beta   90.00000000
_cell_angle_gamma   90.00000000
_symmetry_Int_Tables_number   1
_chemical_formula_structural   Zn4H33C50NO15
_chemical_formula_sum   'Zn24 H198 C300 N6 O90'
_cell_volume   26140.71846663
_cell_formula_units_Z   6
loop_
 _symmetry_equiv_pos_site_id
 _symmetry_equiv_pos_as_xyz
  1  'x, y, z'
loop_
 _atom_site_type_symbol
 _atom_site_label
 _atom_site_symmetry_multiplicity
 _atom_site_fract_x
 _atom_site_fract_y
 _atom_site_fract_z
 _atom_site_occupancy
  Zn  Zn0  1  0.40236000  0.97118000  0.59951000  1
  Zn  Zn1  1  0.58185000  0.97103000  0.59896000  1
  Zn  Zn2  1  0.49408000  0.93113000  0.52257000  1
  Zn  Zn3  1  0.49096000  0.89579000  0.57467000  1
  Zn  Zn4  1  0.49096000  0.67888000  0.10421000  1
  Zn  Zn5  1  0.40236000  0.62833000  0.02882000  1
  Zn  Zn6  1  0.58185000  0.62793000  0.02897000  1
  Zn  Zn7  1  0.90236000  0.59951000  0.62833000  1
  Zn  Zn8  1  0.08185000  0.59896000  0.62793000  1
  Zn  Zn9  1  0.49408000  0.59144000  0.06887000  1
  Zn  Zn10  1  0.99096000  0.57467000  0.67888000  1
  Zn  Zn11  1  0.99408000  0.52257000  0.59144000  1
  Zn  Zn12  1  0.49408000  0.47743000  0.40856000  1
  Zn  Zn13  1  0.49096000  0.42533000  0.32112000  1
  Zn  Zn14  1  0.99408000  0.40856000  0.93113000  1
  Zn  Zn15  1  0.58185000  0.40104000  0.37207000  1
  Zn  Zn16  1  0.40236000  0.40049000  0.37167000  1
  Zn  Zn17  1  0.08185000  0.37207000  0.97103000  1
  Zn  Zn18  1  0.90236000  0.37167000  0.97118000  1
  Zn  Zn19  1  0.99096000  0.32112000  0.89579000  1
  Zn  Zn20  1  0.99096000  0.10421000  0.42533000  1
  Zn  Zn21  1  0.99408000  0.06887000  0.47743000  1
  Zn  Zn22  1  0.08185000  0.02897000  0.40104000  1
  Zn  Zn23  1  0.90236000  0.02882000  0.40049000  1
  H  H24  1  0.74250000  0.98280000  0.43950000  1
  H  H25  1  0.27380000  0.96670000  0.34760000  1
  H  H26  1  0.65300000  0.96090000  0.46510000  1
  H  H27  1  0.35466000  0.95671000  0.45760000  1
  H  H28  1  0.35650000  0.95210000  0.34780000  1
  H  H29  1  0.17020000  0.95080000  0.37820000  1
  H  H30  1  0.20240000  0.94300000  0.63720000  1
  H  H31  1  0.09400000  0.94090000  0.28610000  1
  H  H32  1  0.77110000  0.93730000  0.63530000  1
  H  H33  1  0.16960000  0.93720000  0.42610000  1
  H  H34  1  0.32450000  0.93410000  0.38860000  1
  H  H35  1  0.88850000  0.91880000  0.31320000  1
  H  H36  1  0.09350000  0.91770000  0.64740000  1
  H  H37  1  0.88510000  0.91140000  0.63960000  1
  H  H38  1  0.21870000  0.90950000  0.31950000  1
  H  H39  1  0.13390000  0.90280000  0.39120000  1
  H  H40  1  0.21830000  0.90110000  0.40260000  1
  H  H41  1  0.16100000  0.88720000  0.32980000  1
  H  H42  1  0.09230000  0.88390000  0.23120000  1
  H  H43  1  0.24890000  0.88280000  0.33320000  1
  H  H44  1  0.98500000  0.88150000  0.61810000  1
  H  H45  1  0.88680000  0.86180000  0.25830000  1
  H  H46  1  0.30570000  0.84330000  0.59280000  1
  H  H47  1  0.67580000  0.83550000  0.58290000  1
  H  H48  1  0.10360000  0.82720000  0.19050000  1
  H  H49  1  0.54050000  0.82650000  0.42330000  1
  H  H50  1  0.87970000  0.82070000  0.20640000  1
  H  H51  1  0.19680000  0.81800000  0.60300000  1
  H  H52  1  0.78990000  0.80960000  0.58720000  1
  H  H53  1  0.10360000  0.80950000  0.63670000  1
  H  H54  1  0.87970000  0.79360000  0.61430000  1
  H  H55  1  0.44490000  0.78720000  0.48490000  1
  H  H56  1  0.19680000  0.78500000  0.18200000  1
  H  H57  1  0.78990000  0.77760000  0.19040000  1
  H  H58  1  0.09230000  0.76880000  0.65270000  1
  H  H59  1  0.53500000  0.76740000  0.37120000  1
  H  H60  1  0.30570000  0.74950000  0.15670000  1
  H  H61  1  0.67580000  0.74740000  0.16450000  1
  H  H62  1  0.88680000  0.74170000  0.60350000  1
  H  H63  1  0.98500000  0.73660000  0.11850000  1
  H  H64  1  0.09350000  0.72970000  0.08230000  1
  H  H65  1  0.88510000  0.72820000  0.08860000  1
  H  H66  1  0.43950000  0.72810000  0.43280000  1
  H  H67  1  0.49330000  0.71770000  0.32520000  1
  H  H68  1  0.09400000  0.71390000  0.65480000  1
  H  H69  1  0.43950000  0.70470000  0.27190000  1
  H  H70  1  0.77110000  0.69800000  0.06270000  1
  H  H71  1  0.44490000  0.69770000  0.21280000  1
  H  H72  1  0.20240000  0.69420000  0.05700000  1
  H  H73  1  0.88850000  0.68680000  0.60560000  1
  H  H74  1  0.21870000  0.68050000  0.59000000  1
  H  H75  1  0.49330000  0.67480000  0.39250000  1
  H  H76  1  0.16100000  0.67020000  0.55740000  1
  H  H77  1  0.24890000  0.66680000  0.54960000  1
  H  H78  1  0.59400000  0.65480000  0.94090000  1
  H  H79  1  0.59230000  0.65270000  0.88390000  1
  H  H80  1  0.27380000  0.65240000  0.61910000  1
  H  H81  1  0.35650000  0.65220000  0.60430000  1
  H  H82  1  0.59350000  0.64740000  0.72970000  1
  H  H83  1  0.38510000  0.63960000  0.72820000  1
  H  H84  1  0.70240000  0.63720000  0.69420000  1
  H  H85  1  0.60360000  0.63670000  0.82720000  1
  H  H86  1  0.27110000  0.63530000  0.69800000  1
  H  H87  1  0.53500000  0.62880000  0.39620000  1
  H  H88  1  0.17020000  0.62180000  0.57260000  1
  H  H89  1  0.77380000  0.61910000  0.96670000  1
  H  H90  1  0.48500000  0.61810000  0.73660000  1
  H  H91  1  0.37970000  0.61430000  0.82070000  1
  H  H92  1  0.32450000  0.61140000  0.54550000  1
  H  H93  1  0.13390000  0.60880000  0.51160000  1
  H  H94  1  0.49330000  0.60750000  0.28230000  1
  H  H95  1  0.38850000  0.60560000  0.91880000  1
  H  H96  1  0.85650000  0.60430000  0.95210000  1
  H  H97  1  0.53500000  0.60380000  0.23260000  1
  H  H98  1  0.38680000  0.60350000  0.86180000  1
  H  H99  1  0.69680000  0.60300000  0.78500000  1
  H  H100  1  0.21830000  0.59740000  0.49850000  1
  H  H101  1  0.54050000  0.59680000  0.17350000  1
  H  H102  1  0.80570000  0.59280000  0.74950000  1
  H  H103  1  0.71870000  0.59000000  0.90950000  1
  H  H104  1  0.28990000  0.58720000  0.77760000  1
  H  H105  1  0.17580000  0.58290000  0.74740000  1
  H  H106  1  0.54050000  0.57670000  0.40320000  1
  H  H107  1  0.16960000  0.57390000  0.51110000  1
  H  H108  1  0.67020000  0.57260000  0.95080000  1
  H  H109  1  0.43950000  0.56720000  0.29530000  1
  H  H110  1  0.74250000  0.56050000  0.54330000  1
  H  H111  1  0.66100000  0.55740000  0.88720000  1
  H  H112  1  0.74890000  0.54960000  0.88280000  1
  H  H113  1  0.82450000  0.54550000  0.93410000  1
  H  H114  1  0.24250000  0.54330000  0.98280000  1
  H  H115  1  0.35466000  0.54239000  0.49910000  1
  H  H116  1  0.65300000  0.53490000  0.49580000  1
  H  H117  1  0.44490000  0.51510000  0.30230000  1
  H  H118  1  0.63390000  0.51160000  0.90280000  1
  H  H119  1  0.66960000  0.51110000  0.93720000  1
  H  H120  1  0.65300000  0.50420000  0.03910000  1
  H  H121  1  0.21830000  0.50150000  0.09890000  1
  H  H122  1  0.35466000  0.50089000  0.04328000  1
  H  H123  1  0.85466000  0.49911000  0.95672000  1
  H  H124  1  0.71830000  0.49850000  0.90110000  1
  H  H125  1  0.15300000  0.49580000  0.96090000  1
  H  H126  1  0.16960000  0.48890000  0.06280000  1
  H  H127  1  0.13390000  0.48840000  0.09720000  1
  H  H128  1  0.94490000  0.48490000  0.69770000  1
  H  H129  1  0.15300000  0.46510000  0.50420000  1
  H  H130  1  0.85466000  0.45761000  0.50090000  1
  H  H131  1  0.74250000  0.45670000  0.01720000  1
  H  H132  1  0.32450000  0.45450000  0.06590000  1
  H  H133  1  0.24890000  0.45040000  0.11720000  1
  H  H134  1  0.16100000  0.44260000  0.11280000  1
  H  H135  1  0.24250000  0.43950000  0.45670000  1
  H  H136  1  0.93950000  0.43280000  0.70470000  1
  H  H137  1  0.17020000  0.42740000  0.04920000  1
  H  H138  1  0.66960000  0.42610000  0.48890000  1
  H  H139  1  0.04050000  0.42330000  0.59680000  1
  H  H140  1  0.67580000  0.41710000  0.25260000  1
  H  H141  1  0.78990000  0.41280000  0.22240000  1
  H  H142  1  0.21870000  0.41000000  0.09050000  1
  H  H143  1  0.30570000  0.40720000  0.25050000  1
  H  H144  1  0.04050000  0.40320000  0.82650000  1
  H  H145  1  0.71830000  0.40260000  0.50150000  1
  H  H146  1  0.19680000  0.39700000  0.21500000  1
  H  H147  1  0.88680000  0.39650000  0.13820000  1
  H  H148  1  0.03500000  0.39620000  0.76740000  1
  H  H149  1  0.35650000  0.39570000  0.04790000  1
  H  H150  1  0.88850000  0.39440000  0.08120000  1
  H  H151  1  0.99330000  0.39250000  0.71770000  1
  H  H152  1  0.63390000  0.39120000  0.48840000  1
  H  H153  1  0.82450000  0.38860000  0.45450000  1
  H  H154  1  0.87970000  0.38570000  0.17930000  1
  H  H155  1  0.98500000  0.38190000  0.26340000  1
  H  H156  1  0.27380000  0.38090000  0.03330000  1
  H  H157  1  0.67020000  0.37820000  0.42740000  1
  H  H158  1  0.03500000  0.37120000  0.60380000  1
  H  H159  1  0.77110000  0.36470000  0.30200000  1
  H  H160  1  0.10360000  0.36330000  0.17280000  1
  H  H161  1  0.20240000  0.36280000  0.30580000  1
  H  H162  1  0.88510000  0.36040000  0.27180000  1
  H  H163  1  0.09350000  0.35260000  0.27030000  1
  H  H164  1  0.85650000  0.34780000  0.39570000  1
  H  H165  1  0.77380000  0.34760000  0.38090000  1
  H  H166  1  0.09230000  0.34730000  0.11610000  1
  H  H167  1  0.09400000  0.34520000  0.05910000  1
  H  H168  1  0.74890000  0.33320000  0.45040000  1
  H  H169  1  0.66100000  0.32980000  0.44260000  1
  H  H170  1  0.99330000  0.32520000  0.60750000  1
  H  H171  1  0.71870000  0.31950000  0.41000000  1
  H  H172  1  0.38850000  0.31320000  0.39440000  1
  H  H173  1  0.70240000  0.30580000  0.94300000  1
  H  H174  1  0.94490000  0.30230000  0.78720000  1
  H  H175  1  0.27110000  0.30200000  0.93730000  1
  H  H176  1  0.93950000  0.29530000  0.72810000  1
  H  H177  1  0.59400000  0.28610000  0.34520000  1
  H  H178  1  0.99330000  0.28230000  0.67480000  1
  H  H179  1  0.93950000  0.27190000  0.56720000  1
  H  H180  1  0.38510000  0.27180000  0.91140000  1
  H  H181  1  0.59350000  0.27030000  0.91770000  1
  H  H182  1  0.48500000  0.26340000  0.88150000  1
  H  H183  1  0.38680000  0.25830000  0.39650000  1
  H  H184  1  0.17580000  0.25260000  0.83550000  1
  H  H185  1  0.80570000  0.25050000  0.84330000  1
  H  H186  1  0.03500000  0.23260000  0.62880000  1
  H  H187  1  0.59230000  0.23120000  0.34730000  1
  H  H188  1  0.28990000  0.22240000  0.80960000  1
  H  H189  1  0.69680000  0.21500000  0.81800000  1
  H  H190  1  0.94490000  0.21280000  0.51510000  1
  H  H191  1  0.37970000  0.20640000  0.38570000  1
  H  H192  1  0.60360000  0.19050000  0.36330000  1
  H  H193  1  0.28990000  0.19040000  0.41280000  1
  H  H194  1  0.69680000  0.18200000  0.39700000  1
  H  H195  1  0.37970000  0.17930000  0.79360000  1
  H  H196  1  0.04050000  0.17350000  0.57670000  1
  H  H197  1  0.60360000  0.17280000  0.80950000  1
  H  H198  1  0.17580000  0.16450000  0.41710000  1
  H  H199  1  0.80570000  0.15670000  0.40720000  1
  H  H200  1  0.38680000  0.13820000  0.74170000  1
  H  H201  1  0.48500000  0.11850000  0.38190000  1
  H  H202  1  0.74890000  0.11720000  0.66680000  1
  H  H203  1  0.59230000  0.11610000  0.76880000  1
  H  H204  1  0.66100000  0.11280000  0.67020000  1
  H  H205  1  0.71830000  0.09890000  0.59740000  1
  H  H206  1  0.63390000  0.09720000  0.60880000  1
  H  H207  1  0.71870000  0.09050000  0.68050000  1
  H  H208  1  0.38510000  0.08860000  0.36040000  1
  H  H209  1  0.59350000  0.08230000  0.35260000  1
  H  H210  1  0.38850000  0.08120000  0.68680000  1
  H  H211  1  0.82450000  0.06590000  0.61140000  1
  H  H212  1  0.66960000  0.06280000  0.57390000  1
  H  H213  1  0.27110000  0.06270000  0.36470000  1
  H  H214  1  0.59400000  0.05910000  0.71390000  1
  H  H215  1  0.70240000  0.05700000  0.36280000  1
  H  H216  1  0.67020000  0.04920000  0.62180000  1
  H  H217  1  0.85650000  0.04790000  0.65220000  1
  H  H218  1  0.85466000  0.04329000  0.54240000  1
  H  H219  1  0.15300000  0.03910000  0.53490000  1
  H  H220  1  0.77380000  0.03330000  0.65240000  1
  H  H221  1  0.24250000  0.01720000  0.56050000  1
  C  C222  1  0.74530000  0.98983000  0.46462000  1
  C  C223  1  0.25360000  0.98919000  0.46044000  1
  C  C224  1  0.69585000  0.98720000  0.51742000  1
  C  C225  1  0.82120000  0.98720000  0.57680000  1
  C  C226  1  0.30309000  0.98656000  0.51324000  1
  C  C227  1  0.69168000  0.97671000  0.47995000  1
  C  C228  1  0.30726000  0.97607000  0.47577000  1
  C  C229  1  0.35860000  0.97422000  0.53332000  1
  C  C230  1  0.98920000  0.97224000  0.34314000  1
  C  C231  1  0.63499000  0.97170000  0.53187000  1
  C  C232  1  0.31490000  0.96710000  0.36350000  1
  C  C233  1  0.28700000  0.95150000  0.38850000  1
  C  C234  1  0.99143000  0.93550000  0.30506000  1
  C  C235  1  0.20720000  0.93230000  0.37650000  1
  C  C236  1  0.05248000  0.92503000  0.28050000  1
  C  C237  1  0.20129000  0.91795000  0.63032000  1
  C  C238  1  0.17970000  0.91690000  0.40140000  1
  C  C239  1  0.92937000  0.91181000  0.29674000  1
  C  C240  1  0.77485000  0.91168000  0.62565000  1
  C  C241  1  0.64630000  0.90916000  0.60507000  1
  C  C242  1  0.34245000  0.90793000  0.60462000  1
  C  C243  1  0.13604000  0.90278000  0.63643000  1
  C  C244  1  0.20910000  0.89990000  0.33590000  1
  C  C245  1  0.84317000  0.89618000  0.62822000  1
  C  C246  1  0.26486000  0.89567000  0.61398000  1
  C  C247  1  0.05147000  0.89088000  0.24763000  1
  C  C248  1  0.71216000  0.88895000  0.60868000  1
  C  C249  1  0.92836000  0.87767000  0.26388000  1
  C  C250  1  0.98941000  0.86720000  0.23932000  1
  C  C251  1  0.13434000  0.86534000  0.62620000  1
  C  C252  1  0.98677000  0.86013000  0.62005000  1
  C  C253  1  0.26317000  0.85823000  0.60376000  1
  C  C254  1  0.84880000  0.85795000  0.61381000  1
  C  C255  1  0.48160000  0.85212000  0.49293000  1
  C  C256  1  0.71778000  0.85072000  0.59428000  1
  C  C257  1  0.05518000  0.84893000  0.62824000  1
  C  C258  1  0.19791000  0.84307000  0.60988000  1
  C  C259  1  0.92103000  0.83940000  0.61482000  1
  C  C260  1  0.78611000  0.83522000  0.59684000  1
  C  C261  1  0.99211000  0.82971000  0.20371000  1
  C  C262  1  0.05785000  0.81701000  0.63122000  1
  C  C263  1  0.05785000  0.81421000  0.18299000  1
  C  C264  1  0.49320000  0.81270000  0.45926000  1
  C  C265  1  0.92370000  0.81031000  0.19252000  1
  C  C266  1  0.92370000  0.80748000  0.61779000  1
  C  C267  1  0.52021000  0.80677000  0.42520000  1
  C  C268  1  0.99211000  0.79629000  0.62600000  1
  C  C269  1  0.46300000  0.78324000  0.46211000  1
  C  C270  1  0.05518000  0.77931000  0.15107000  1
  C  C271  1  0.92103000  0.77542000  0.16060000  1
  C  C272  1  0.51700000  0.77138000  0.39398000  1
  C  C273  1  0.19791000  0.76681000  0.15693000  1
  C  C274  1  0.78611000  0.76162000  0.16478000  1
  C  C275  1  0.13434000  0.76086000  0.13466000  1
  C  C276  1  0.98941000  0.76068000  0.62788000  1
  C  C277  1  0.98677000  0.75992000  0.13987000  1
  C  C278  1  0.84880000  0.75586000  0.14205000  1
  C  C279  1  0.05147000  0.75237000  0.64325000  1
  C  C280  1  0.45970000  0.74785000  0.43089000  1
  C  C281  1  0.26317000  0.74553000  0.14177000  1
  C  C282  1  0.71778000  0.74356000  0.14928000  1
  C  C283  1  0.48670000  0.74192000  0.39683000  1
  C  C284  1  0.92836000  0.73612000  0.61379000  1
  C  C285  1  0.13604000  0.73365000  0.09722000  1
  C  C286  1  0.84317000  0.73204000  0.10382000  1
  C  C287  1  0.71216000  0.71973000  0.11105000  1
  C  C288  1  0.05248000  0.71950000  0.64453000  1
  C  C289  1  0.26486000  0.71831000  0.10433000  1
  C  C290  1  0.77485000  0.71397000  0.08832000  1
  C  C291  1  0.20129000  0.71237000  0.08205000  1
  C  C292  1  0.92937000  0.70326000  0.61507000  1
  C  C293  1  0.49520000  0.70240000  0.36465000  1
  C  C294  1  0.49440000  0.69702000  0.32835000  1
  C  C295  1  0.34245000  0.69669000  0.09207000  1
  C  C296  1  0.64630000  0.69591000  0.09084000  1
  C  C297  1  0.99143000  0.69494000  0.63044000  1
  C  C298  1  0.45970000  0.68304000  0.25215000  1
  C  C299  1  0.46300000  0.67887000  0.21676000  1
  C  C300  1  0.49440000  0.67165000  0.36867000  1
  C  C301  1  0.20910000  0.66410000  0.56400000  1
  C  C302  1  0.49520000  0.66225000  0.29760000  1
  C  C303  1  0.98920000  0.65686000  0.62910000  1
  C  C304  1  0.48670000  0.65491000  0.25808000  1
  C  C305  1  0.49320000  0.64656000  0.18730000  1
  C  C306  1  0.55248000  0.64453000  0.92503000  1
  C  C307  1  0.55147000  0.64325000  0.89088000  1
  C  C308  1  0.48160000  0.64081000  0.14788000  1
  C  C309  1  0.31490000  0.63650000  0.60360000  1
  C  C310  1  0.63604000  0.63643000  0.73365000  1
  C  C311  1  0.49520000  0.63535000  0.33775000  1
  C  C312  1  0.49440000  0.63133000  0.30298000  1
  C  C313  1  0.55785000  0.63122000  0.81421000  1
  C  C314  1  0.49143000  0.63044000  0.93550000  1
  C  C315  1  0.70129000  0.63032000  0.71237000  1
  C  C316  1  0.48920000  0.62910000  0.97224000  1
  C  C317  1  0.55518000  0.62824000  0.77931000  1
  C  C318  1  0.34317000  0.62822000  0.73204000  1
  C  C319  1  0.48941000  0.62788000  0.86720000  1
  C  C320  1  0.63434000  0.62620000  0.76086000  1
  C  C321  1  0.49211000  0.62600000  0.82971000  1
  C  C322  1  0.27485000  0.62565000  0.71397000  1
  C  C323  1  0.20720000  0.62350000  0.55580000  1
  C  C324  1  0.51700000  0.62260000  0.22862000  1
  C  C325  1  0.48677000  0.62005000  0.75992000  1
  C  C326  1  0.52021000  0.61843000  0.19323000  1
  C  C327  1  0.42370000  0.61779000  0.81031000  1
  C  C328  1  0.42937000  0.61507000  0.91181000  1
  C  C329  1  0.42103000  0.61482000  0.77542000  1
  C  C330  1  0.76486000  0.61398000  0.71831000  1
  C  C331  1  0.34880000  0.61381000  0.75586000  1
  C  C332  1  0.42836000  0.61379000  0.87767000  1
  C  C333  1  0.28700000  0.61150000  0.56300000  1
  C  C334  1  0.69791000  0.60988000  0.76681000  1
  C  C335  1  0.21216000  0.60868000  0.71973000  1
  C  C336  1  0.51700000  0.60602000  0.37740000  1
  C  C337  1  0.14630000  0.60507000  0.69591000  1
  C  C338  1  0.84245000  0.60462000  0.69669000  1
  C  C339  1  0.76317000  0.60376000  0.74553000  1
  C  C340  1  0.81490000  0.60360000  0.96710000  1
  C  C341  1  0.48670000  0.60317000  0.34509000  1
  C  C342  1  0.17970000  0.59860000  0.51550000  1
  C  C343  1  0.28611000  0.59684000  0.76162000  1
  C  C344  1  0.21778000  0.59428000  0.74356000  1
  C  C345  1  0.82120000  0.58960000  0.01280000  1
  C  C346  1  0.32120000  0.57680000  0.58960000  1
  C  C347  1  0.52021000  0.57480000  0.38157000  1
  C  C348  1  0.45970000  0.56911000  0.31696000  1
  C  C349  1  0.70910000  0.56400000  0.89990000  1
  C  C350  1  0.78700000  0.56300000  0.95150000  1
  C  C351  1  0.63499000  0.56017000  0.02830000  1
  C  C352  1  0.35860000  0.55910000  0.02578000  1
  C  C353  1  0.70720000  0.55580000  0.93230000  1
  C  C354  1  0.49320000  0.54074000  0.35344000  1
  C  C355  1  0.25360000  0.53956000  0.52875000  1
  C  C356  1  0.46300000  0.53789000  0.32113000  1
  C  C357  1  0.74530000  0.53538000  0.52521000  1
  C  C358  1  0.85860000  0.53332000  0.55910000  1
  C  C359  1  0.13499000  0.53187000  0.56017000  1
  C  C360  1  0.69585000  0.53022000  0.01280000  1
  C  C361  1  0.75360000  0.52875000  0.98919000  1
  C  C362  1  0.30309000  0.52668000  0.01344000  1
  C  C363  1  0.24530000  0.52521000  0.98983000  1
  C  C364  1  0.30726000  0.52423000  0.50030000  1
  C  C365  1  0.69168000  0.52005000  0.49676000  1
  C  C366  1  0.19585000  0.51742000  0.53022000  1
  C  C367  1  0.67970000  0.51550000  0.91690000  1
  C  C368  1  0.80309000  0.51324000  0.52668000  1
  C  C369  1  0.48160000  0.50707000  0.35919000  1
  C  C370  1  0.69168000  0.50324000  0.02329000  1
  C  C371  1  0.80726000  0.50030000  0.97607000  1
  C  C372  1  0.30726000  0.49970000  0.02393000  1
  C  C373  1  0.19168000  0.49676000  0.97671000  1
  C  C374  1  0.98160000  0.49293000  0.64081000  1
  C  C375  1  0.30309000  0.48676000  0.47332000  1
  C  C376  1  0.17970000  0.48450000  0.08310000  1
  C  C377  1  0.69585000  0.48258000  0.46978000  1
  C  C378  1  0.19168000  0.47995000  0.50324000  1
  C  C379  1  0.80726000  0.47577000  0.49970000  1
  C  C380  1  0.74530000  0.47479000  0.01017000  1
  C  C381  1  0.80309000  0.47332000  0.98656000  1
  C  C382  1  0.25360000  0.47125000  0.01081000  1
  C  C383  1  0.19585000  0.46978000  0.98720000  1
  C  C384  1  0.63499000  0.46813000  0.43983000  1
  C  C385  1  0.35860000  0.46668000  0.44090000  1
  C  C386  1  0.24530000  0.46462000  0.47479000  1
  C  C387  1  0.96300000  0.46211000  0.67887000  1
  C  C388  1  0.75360000  0.46044000  0.47125000  1
  C  C389  1  0.99320000  0.45926000  0.64656000  1
  C  C390  1  0.20720000  0.44420000  0.06770000  1
  C  C391  1  0.85860000  0.44090000  0.97422000  1
  C  C392  1  0.13499000  0.43983000  0.97170000  1
  C  C393  1  0.28700000  0.43700000  0.04850000  1
  C  C394  1  0.20910000  0.43600000  0.10010000  1
  C  C395  1  0.95970000  0.43089000  0.68304000  1
  C  C396  1  0.02021000  0.42520000  0.61843000  1
  C  C397  1  0.82120000  0.42320000  0.41040000  1
  C  C398  1  0.32120000  0.41040000  0.98720000  1
  C  C399  1  0.71778000  0.40572000  0.25644000  1
  C  C400  1  0.78611000  0.40316000  0.23838000  1
  C  C401  1  0.67970000  0.40140000  0.48450000  1
  C  C402  1  0.98670000  0.39683000  0.65491000  1
  C  C403  1  0.31490000  0.39640000  0.03290000  1
  C  C404  1  0.26317000  0.39624000  0.25447000  1
  C  C405  1  0.34245000  0.39538000  0.30331000  1
  C  C406  1  0.64630000  0.39493000  0.30409000  1
  C  C407  1  0.01700000  0.39398000  0.62260000  1
  C  C408  1  0.71216000  0.39132000  0.28027000  1
  C  C409  1  0.19791000  0.39012000  0.23319000  1
  C  C410  1  0.78700000  0.38850000  0.43700000  1
  C  C411  1  0.92836000  0.38621000  0.12233000  1
  C  C412  1  0.84880000  0.38619000  0.24414000  1
  C  C413  1  0.26486000  0.38602000  0.28169000  1
  C  C414  1  0.92103000  0.38518000  0.22458000  1
  C  C415  1  0.92937000  0.38493000  0.08819000  1
  C  C416  1  0.92370000  0.38221000  0.18969000  1
  C  C417  1  0.02021000  0.38157000  0.80677000  1
  C  C418  1  0.98677000  0.37995000  0.24008000  1
  C  C419  1  0.01700000  0.37740000  0.77138000  1
  C  C420  1  0.70720000  0.37650000  0.44420000  1
  C  C421  1  0.77485000  0.37435000  0.28603000  1
  C  C422  1  0.99211000  0.37400000  0.17029000  1
  C  C423  1  0.13434000  0.37380000  0.23914000  1
  C  C424  1  0.98941000  0.37212000  0.13280000  1
  C  C425  1  0.84317000  0.37178000  0.26796000  1
  C  C426  1  0.05518000  0.37176000  0.22069000  1
  C  C427  1  0.98920000  0.37090000  0.02776000  1
  C  C428  1  0.20129000  0.36968000  0.28763000  1
  C  C429  1  0.99143000  0.36956000  0.06450000  1
  C  C430  1  0.05785000  0.36878000  0.18579000  1
  C  C431  1  0.99440000  0.36867000  0.69702000  1
  C  C432  1  0.99520000  0.36465000  0.66225000  1
  C  C433  1  0.13604000  0.36357000  0.26635000  1
  C  C434  1  0.81490000  0.36350000  0.39640000  1
  C  C435  1  0.98160000  0.35919000  0.85212000  1
  C  C436  1  0.05147000  0.35675000  0.10912000  1
  C  C437  1  0.05248000  0.35547000  0.07497000  1
  C  C438  1  0.99320000  0.35344000  0.81270000  1
  C  C439  1  0.98670000  0.34509000  0.74192000  1
  C  C440  1  0.48920000  0.34314000  0.37090000  1
  C  C441  1  0.99520000  0.33775000  0.70240000  1
  C  C442  1  0.70910000  0.33590000  0.43600000  1
  C  C443  1  0.99440000  0.32835000  0.63133000  1
  C  C444  1  0.96300000  0.32113000  0.78324000  1
  C  C445  1  0.95970000  0.31696000  0.74785000  1
  C  C446  1  0.49143000  0.30506000  0.36956000  1
  C  C447  1  0.14630000  0.30409000  0.90916000  1
  C  C448  1  0.84245000  0.30331000  0.90793000  1
  C  C449  1  0.99440000  0.30298000  0.67165000  1
  C  C450  1  0.99520000  0.29760000  0.63535000  1
  C  C451  1  0.42937000  0.29674000  0.38493000  1
  C  C452  1  0.70129000  0.28763000  0.91795000  1
  C  C453  1  0.27485000  0.28603000  0.91168000  1
  C  C454  1  0.76486000  0.28169000  0.89567000  1
  C  C455  1  0.55248000  0.28050000  0.35547000  1
  C  C456  1  0.21216000  0.28027000  0.88895000  1
  C  C457  1  0.34317000  0.26796000  0.89618000  1
  C  C458  1  0.63604000  0.26635000  0.90278000  1
  C  C459  1  0.42836000  0.26388000  0.38621000  1
  C  C460  1  0.98670000  0.25808000  0.60317000  1
  C  C461  1  0.21778000  0.25644000  0.85072000  1
  C  C462  1  0.76317000  0.25447000  0.85823000  1
  C  C463  1  0.95970000  0.25215000  0.56911000  1
  C  C464  1  0.55147000  0.24763000  0.35675000  1
  C  C465  1  0.34880000  0.24414000  0.85795000  1
  C  C466  1  0.48677000  0.24008000  0.86013000  1
  C  C467  1  0.48941000  0.23932000  0.37212000  1
  C  C468  1  0.63434000  0.23914000  0.86534000  1
  C  C469  1  0.28611000  0.23838000  0.83522000  1
  C  C470  1  0.69791000  0.23319000  0.84307000  1
  C  C471  1  0.01700000  0.22862000  0.60602000  1
  C  C472  1  0.42103000  0.22458000  0.83940000  1
  C  C473  1  0.55518000  0.22069000  0.84893000  1
  C  C474  1  0.96300000  0.21676000  0.53789000  1
  C  C475  1  0.49211000  0.20371000  0.37400000  1
  C  C476  1  0.02021000  0.19323000  0.57480000  1
  C  C477  1  0.42370000  0.19252000  0.38221000  1
  C  C478  1  0.42370000  0.18969000  0.80748000  1
  C  C479  1  0.99320000  0.18730000  0.54074000  1
  C  C480  1  0.55785000  0.18579000  0.81701000  1
  C  C481  1  0.55785000  0.18299000  0.36878000  1
  C  C482  1  0.49211000  0.17029000  0.79629000  1
  C  C483  1  0.28611000  0.16478000  0.40316000  1
  C  C484  1  0.42103000  0.16060000  0.38518000  1
  C  C485  1  0.69791000  0.15693000  0.39012000  1
  C  C486  1  0.55518000  0.15107000  0.37176000  1
  C  C487  1  0.21778000  0.14928000  0.40572000  1
  C  C488  1  0.98160000  0.14788000  0.50707000  1
  C  C489  1  0.34880000  0.14205000  0.38619000  1
  C  C490  1  0.76317000  0.14177000  0.39624000  1
  C  C491  1  0.48677000  0.13987000  0.37995000  1
  C  C492  1  0.63434000  0.13466000  0.37380000  1
  C  C493  1  0.48941000  0.13280000  0.76068000  1
  C  C494  1  0.42836000  0.12233000  0.73612000  1
  C  C495  1  0.21216000  0.11105000  0.39132000  1
  C  C496  1  0.55147000  0.10912000  0.75237000  1
  C  C497  1  0.76486000  0.10433000  0.38602000  1
  C  C498  1  0.34317000  0.10382000  0.37178000  1
  C  C499  1  0.70910000  0.10010000  0.66410000  1
  C  C500  1  0.63604000  0.09722000  0.36357000  1
  C  C501  1  0.84245000  0.09207000  0.39538000  1
  C  C502  1  0.14630000  0.09084000  0.39493000  1
  C  C503  1  0.27485000  0.08832000  0.37435000  1
  C  C504  1  0.42937000  0.08819000  0.70326000  1
  C  C505  1  0.67970000  0.08310000  0.59860000  1
  C  C506  1  0.70129000  0.08205000  0.36968000  1
  C  C507  1  0.55248000  0.07497000  0.71950000  1
  C  C508  1  0.70720000  0.06770000  0.62350000  1
  C  C509  1  0.49143000  0.06450000  0.69494000  1
  C  C510  1  0.78700000  0.04850000  0.61150000  1
  C  C511  1  0.81490000  0.03290000  0.63650000  1
  C  C512  1  0.13499000  0.02830000  0.46813000  1
  C  C513  1  0.48920000  0.02776000  0.65686000  1
  C  C514  1  0.85860000  0.02578000  0.46668000  1
  C  C515  1  0.80726000  0.02393000  0.52423000  1
  C  C516  1  0.19168000  0.02329000  0.52005000  1
  C  C517  1  0.80309000  0.01344000  0.48676000  1
  C  C518  1  0.32120000  0.01280000  0.42320000  1
  C  C519  1  0.19585000  0.01280000  0.48258000  1
  C  C520  1  0.75360000  0.01081000  0.53956000  1
  C  C521  1  0.24530000  0.01017000  0.53538000  1
  N  N522  1  0.28250000  0.98470000  0.42550000  1
  N  N523  1  0.28250000  0.57450000  0.55920000  1
  N  N524  1  0.78250000  0.55920000  0.98470000  1
  N  N525  1  0.28250000  0.44080000  0.01530000  1
  N  N526  1  0.78250000  0.42550000  0.44080000  1
  N  N527  1  0.78250000  0.01530000  0.57450000  1
  O  O528  1  0.83980000  0.99550000  0.61250000  1
  O  O529  1  0.05288000  0.98781000  0.35291000  1
  O  O530  1  0.34920000  0.98574000  0.56744000  1
  O  O531  1  0.92330000  0.98292000  0.35575000  1
  O  O532  1  0.64441000  0.97535000  0.56329000  1
  O  O533  1  0.83210000  0.95640000  0.55000000  1
  O  O534  1  0.58007000  0.95283000  0.51202000  1
  O  O535  1  0.40451000  0.95102000  0.51006000  1
  O  O536  1  0.64420000  0.94317000  0.61473000  1
  O  O537  1  0.49048000  0.94224000  0.57386000  1
  O  O538  1  0.33250000  0.93896000  0.60735000  1
  O  O539  1  0.40339000  0.88954000  0.59677000  1
  O  O540  1  0.59355000  0.88586000  0.58980000  1
  O  O541  1  0.50220000  0.87754000  0.48659000  1
  O  O542  1  0.50470000  0.85401000  0.52360000  1
  O  O543  1  0.40339000  0.70723000  0.11046000  1
  O  O544  1  0.59355000  0.70394000  0.11414000  1
  O  O545  1  0.64420000  0.67156000  0.05683000  1
  O  O546  1  0.50470000  0.66959000  0.14599000  1
  O  O547  1  0.33250000  0.66839000  0.06104000  1
  O  O548  1  0.05288000  0.64709000  0.63490000  1
  O  O549  1  0.92330000  0.64425000  0.62717000  1
  O  O550  1  0.55288000  0.63490000  0.98781000  1
  O  O551  1  0.49048000  0.63162000  0.05776000  1
  O  O552  1  0.42330000  0.62717000  0.98292000  1
  O  O553  1  0.83980000  0.61700000  0.00450000  1
  O  O554  1  0.14420000  0.61473000  0.67156000  1
  O  O555  1  0.33980000  0.61250000  0.61700000  1
  O  O556  1  0.50220000  0.60905000  0.12246000  1
  O  O557  1  0.83250000  0.60735000  0.66839000  1
  O  O558  1  0.90339000  0.59677000  0.70723000  1
  O  O559  1  0.83210000  0.59360000  0.04360000  1
  O  O560  1  0.09355000  0.58980000  0.70394000  1
  O  O561  1  0.64441000  0.58794000  0.02465000  1
  O  O562  1  0.34920000  0.58170000  0.01426000  1
  O  O563  1  0.99048000  0.57386000  0.63162000  1
  O  O564  1  0.84920000  0.56744000  0.58170000  1
  O  O565  1  0.14441000  0.56329000  0.58794000  1
  O  O566  1  0.58007000  0.55919000  0.04717000  1
  O  O567  1  0.40451000  0.55904000  0.04898000  1
  O  O568  1  0.33210000  0.55000000  0.59360000  1
  O  O569  1  0.00470000  0.52360000  0.66959000  1
  O  O570  1  0.50220000  0.51341000  0.39095000  1
  O  O571  1  0.08007000  0.51202000  0.55919000  1
  O  O572  1  0.90451000  0.51006000  0.55904000  1
  O  O573  1  0.40451000  0.48994000  0.44096000  1
  O  O574  1  0.58007000  0.48798000  0.44081000  1
  O  O575  1  0.00220000  0.48659000  0.60905000  1
  O  O576  1  0.50470000  0.47640000  0.33041000  1
  O  O577  1  0.83210000  0.45000000  0.40640000  1
  O  O578  1  0.90451000  0.44096000  0.95102000  1
  O  O579  1  0.08007000  0.44081000  0.95283000  1
  O  O580  1  0.64441000  0.43671000  0.41206000  1
  O  O581  1  0.34920000  0.43256000  0.41830000  1
  O  O582  1  0.49048000  0.42614000  0.36838000  1
  O  O583  1  0.84920000  0.41830000  0.98574000  1
  O  O584  1  0.14441000  0.41206000  0.97535000  1
  O  O585  1  0.59355000  0.41020000  0.29606000  1
  O  O586  1  0.33210000  0.40640000  0.95640000  1
  O  O587  1  0.40339000  0.40323000  0.29277000  1
  O  O588  1  0.33250000  0.39265000  0.33161000  1
  O  O589  1  0.00220000  0.39095000  0.87754000  1
  O  O590  1  0.83980000  0.38750000  0.38300000  1
  O  O591  1  0.64420000  0.38527000  0.32844000  1
  O  O592  1  0.33980000  0.38300000  0.99550000  1
  O  O593  1  0.92330000  0.37283000  0.01708000  1
  O  O594  1  0.99048000  0.36838000  0.94224000  1
  O  O595  1  0.05288000  0.36510000  0.01219000  1
  O  O596  1  0.42330000  0.35575000  0.37283000  1
  O  O597  1  0.55288000  0.35291000  0.36510000  1
  O  O598  1  0.83250000  0.33161000  0.93896000  1
  O  O599  1  0.00470000  0.33041000  0.85401000  1
  O  O600  1  0.14420000  0.32844000  0.94317000  1
  O  O601  1  0.09355000  0.29606000  0.88586000  1
  O  O602  1  0.90339000  0.29277000  0.88954000  1
  O  O603  1  0.00470000  0.14599000  0.47640000  1
  O  O604  1  0.00220000  0.12246000  0.51341000  1
  O  O605  1  0.09355000  0.11414000  0.41020000  1
  O  O606  1  0.90339000  0.11046000  0.40323000  1
  O  O607  1  0.83250000  0.06104000  0.39265000  1
  O  O608  1  0.99048000  0.05776000  0.42614000  1
  O  O609  1  0.14420000  0.05683000  0.38527000  1
  O  O610  1  0.90451000  0.04898000  0.48994000  1
  O  O611  1  0.08007000  0.04717000  0.48798000  1
  O  O612  1  0.33210000  0.04360000  0.45000000  1
  O  O613  1  0.14441000  0.02465000  0.43671000  1
  O  O614  1  0.42330000  0.01708000  0.64425000  1
  O  O615  1  0.84920000  0.01426000  0.43256000  1
  O  O616  1  0.55288000  0.01219000  0.64709000  1
  O  O617  1  0.33980000  0.00450000  0.38750000  1
