# generated using pymatgen
data_PrH15(C9O2)3
_symmetry_space_group_name_H-M   'P 1'
_cell_length_a   16.43930000
_cell_length_b   16.43930000
_cell_length_c   23.77700000
_cell_angle_alpha   90.00000000
_cell_angle_beta   90.00000000
_cell_angle_gamma   120.00000000
_symmetry_Int_Tables_number   1
_chemical_formula_structural   PrH15(C9O2)3
_chemical_formula_sum   'Pr6 H90 C162 O36'
_cell_volume   5564.86113399
_cell_formula_units_Z   6
loop_
 _symmetry_equiv_pos_site_id
 _symmetry_equiv_pos_as_xyz
  1  'x, y, z'
loop_
 _atom_site_type_symbol
 _atom_site_label
 _atom_site_symmetry_multiplicity
 _atom_site_fract_x
 _atom_site_fract_y
 _atom_site_fract_z
 _atom_site_occupancy
  Pr  Pr0  1  0.00000000  0.08433000  0.16667000  1
  Pr  Pr1  1  1.00000000  0.91567000  0.66666667  1
  Pr  Pr2  1  0.91567000  0.91567000  0.50000000  1
  Pr  Pr3  1  0.91567000  1.00000000  0.33333333  1
  Pr  Pr4  1  0.08433000  0.08433000  1.00000000  1
  Pr  Pr5  1  0.08433000  1.00000000  0.83333000  1
  H  H6  1  0.98290000  0.32480000  0.99100000  1
  H  H7  1  0.98290000  0.65810000  0.84233000  1
  H  H8  1  0.96130000  0.18840000  0.81703000  1
  H  H9  1  0.96130000  0.77290000  0.01630000  1
  H  H10  1  0.88960000  0.18730000  0.40840000  1
  H  H11  1  0.88960000  0.70230000  0.42493000  1
  H  H12  1  0.88530000  0.38820000  0.00180000  1
  H  H13  1  0.88530000  0.49710000  0.83153000  1
  H  H14  1  0.87690000  0.26580000  0.81853000  1
  H  H15  1  0.87690000  0.61110000  0.01480000  1
  H  H16  1  0.85100000  0.37950000  0.77523000  1
  H  H17  1  0.85100000  0.47150000  0.05810000  1
  H  H18  1  0.82290000  0.27900000  0.39410000  1
  H  H19  1  0.82290000  0.54390000  0.43923000  1
  H  H20  1  0.81270000  0.11040000  0.09160000  1
  H  H21  1  0.81270000  0.70230000  0.74173000  1
  H  H22  1  0.81160000  0.03870000  0.68297000  1
  H  H23  1  0.81160000  0.77290000  0.15037000  1
  H  H24  1  0.77290000  0.81160000  0.84963000  1
  H  H25  1  0.77290000  0.96130000  0.98370000  1
  H  H26  1  0.77200000  0.38600000  0.41667000  1
  H  H27  1  0.73420000  0.12310000  0.68147000  1
  H  H28  1  0.73420000  0.61110000  0.15187000  1
  H  H29  1  0.72100000  0.17710000  0.10590000  1
  H  H30  1  0.72100000  0.54390000  0.72743000  1
  H  H31  1  0.70230000  0.81270000  0.25827000  1
  H  H32  1  0.70230000  0.88960000  0.57507000  1
  H  H33  1  0.67520000  0.01710000  0.50900000  1
  H  H34  1  0.67520000  0.65810000  0.32433000  1
  H  H35  1  0.65810000  0.67520000  0.67567000  1
  H  H36  1  0.65810000  0.98290000  0.15767000  1
  H  H37  1  0.62050000  0.14900000  0.72477000  1
  H  H38  1  0.62050000  0.47150000  0.10857000  1
  H  H39  1  0.61400000  0.22800000  0.08333000  1
  H  H40  1  0.61400000  0.38600000  0.75000000  1
  H  H41  1  0.61180000  0.11470000  0.49820000  1
  H  H42  1  0.61180000  0.49710000  0.33513000  1
  H  H43  1  0.61110000  0.73420000  0.84813000  1
  H  H44  1  0.61110000  0.87690000  0.98520000  1
  H  H45  1  0.54390000  0.72100000  0.27257000  1
  H  H46  1  0.54390000  0.82290000  0.56077000  1
  H  H47  1  0.52850000  0.14900000  0.44190000  1
  H  H48  1  0.52850000  0.37950000  0.39143000  1
  H  H49  1  0.50290000  0.11470000  0.66847000  1
  H  H50  1  0.50290000  0.38820000  0.16487000  1
  H  H51  1  0.49710000  0.61180000  0.66487000  1
  H  H52  1  0.49710000  0.88530000  0.16847000  1
  H  H53  1  0.47150000  0.62050000  0.89143000  1
  H  H54  1  0.47150000  0.85100000  0.94190000  1
  H  H55  1  0.45610000  0.17710000  0.06077000  1
  H  H56  1  0.45610000  0.27900000  0.77257000  1
  H  H57  1  0.38890000  0.12310000  0.48520000  1
  H  H58  1  0.38890000  0.26580000  0.34813000  1
  H  H59  1  0.38820000  0.50290000  0.83513000  1
  H  H60  1  0.38820000  0.88530000  0.99820000  1
  H  H61  1  0.38600000  0.61400000  0.25000000  1
  H  H62  1  0.38600000  0.77200000  0.58333000  1
  H  H63  1  0.37950000  0.52850000  0.60857000  1
  H  H64  1  0.37950000  0.85100000  0.22477000  1
  H  H65  1  0.34190000  0.01710000  0.65767000  1
  H  H66  1  0.34190000  0.32480000  0.17567000  1
  H  H67  1  0.32480000  0.34190000  0.82433000  1
  H  H68  1  0.32480000  0.98290000  0.00900000  1
  H  H69  1  0.29770000  0.11040000  0.07507000  1
  H  H70  1  0.29770000  0.18730000  0.75827000  1
  H  H71  1  0.27900000  0.45610000  0.22743000  1
  H  H72  1  0.27900000  0.82290000  0.60590000  1
  H  H73  1  0.26580000  0.38890000  0.65187000  1
  H  H74  1  0.26580000  0.87690000  0.18147000  1
  H  H75  1  0.22800000  0.61400000  0.91667000  1
  H  H76  1  0.22710000  0.03870000  0.48370000  1
  H  H77  1  0.22710000  0.18840000  0.34963000  1
  H  H78  1  0.18840000  0.22710000  0.65037000  1
  H  H79  1  0.18840000  0.96130000  0.18297000  1
  H  H80  1  0.18730000  0.29770000  0.24173000  1
  H  H81  1  0.18730000  0.88960000  0.59160000  1
  H  H82  1  0.17710000  0.45610000  0.93923000  1
  H  H83  1  0.17710000  0.72100000  0.89410000  1
  H  H84  1  0.14900000  0.52850000  0.55810000  1
  H  H85  1  0.14900000  0.62050000  0.27523000  1
  H  H86  1  0.12310000  0.38890000  0.51480000  1
  H  H87  1  0.12310000  0.73420000  0.31853000  1
  H  H88  1  0.11470000  0.50290000  0.33153000  1
  H  H89  1  0.11470000  0.61180000  0.50180000  1
  H  H90  1  0.11040000  0.29770000  0.92493000  1
  H  H91  1  0.11040000  0.81270000  0.90840000  1
  H  H92  1  0.03870000  0.22710000  0.51630000  1
  H  H93  1  0.03870000  0.81160000  0.31703000  1
  H  H94  1  0.01710000  0.34190000  0.34233000  1
  H  H95  1  0.01710000  0.67520000  0.49100000  1
  C  C96  1  0.97550000  0.17420000  0.03740000  1
  C  C97  1  0.97550000  0.80130000  0.79593000  1
  C  C98  1  0.94795000  0.05205000  0.75000000  1
  C  C99  1  0.94795000  0.89590000  0.08333000  1
  C  C100  1  0.93010000  0.29520000  0.01410000  1
  C  C101  1  0.93010000  0.63490000  0.81923000  1
  C  C102  1  0.91470000  0.17410000  0.79033000  1
  C  C103  1  0.91470000  0.74060000  0.04300000  1
  C  C104  1  0.90840000  0.21170000  0.04200000  1
  C  C105  1  0.90840000  0.69670000  0.79133000  1
  C  C106  1  0.89590000  0.94795000  0.91667000  1
  C  C107  1  0.89525000  0.10475000  0.75000000  1
  C  C108  1  0.89525000  0.79050000  0.08333000  1
  C  C109  1  0.87180000  0.33380000  0.02130000  1
  C  C110  1  0.87180000  0.53800000  0.81203000  1
  C  C111  1  0.86500000  0.22130000  0.79073000  1
  C  C112  1  0.86500000  0.64370000  0.04260000  1
  C  C113  1  0.83240000  0.17100000  0.42520000  1
  C  C114  1  0.83240000  0.66140000  0.40813000  1
  C  C115  1  0.82900000  0.16760000  0.07480000  1
  C  C116  1  0.82900000  0.66140000  0.75853000  1
  C  C117  1  0.82590000  0.08530000  0.70967000  1
  C  C118  1  0.82590000  0.74060000  0.12367000  1
  C  C119  1  0.82580000  0.02450000  0.46260000  1
  C  C120  1  0.82580000  0.80130000  0.37073000  1
  C  C121  1  0.80130000  0.82580000  0.62927000  1
  C  C122  1  0.80130000  0.97550000  0.20407000  1
  C  C123  1  0.79725000  0.20275000  0.75000000  1
  C  C124  1  0.79725000  0.59450000  0.08333000  1
  C  C125  1  0.79490000  0.29340000  0.05660000  1
  C  C126  1  0.79490000  0.50150000  0.77673000  1
  C  C127  1  0.79280000  0.22650000  0.41720000  1
  C  C128  1  0.79280000  0.56630000  0.41613000  1
  C  C129  1  0.79050000  0.89525000  0.91667000  1
  C  C130  1  0.78840000  0.34970000  0.76423000  1
  C  C131  1  0.78840000  0.43870000  0.06910000  1
  C  C132  1  0.78830000  0.09160000  0.45800000  1
  C  C133  1  0.78830000  0.69670000  0.37533000  1
  C  C134  1  0.77870000  0.13500000  0.70927000  1
  C  C135  1  0.77870000  0.64370000  0.12407000  1
  C  C136  1  0.77350000  0.20720000  0.08280000  1
  C  C137  1  0.77350000  0.56630000  0.75053000  1
  C  C138  1  0.74460000  0.25540000  0.75000000  1
  C  C139  1  0.74460000  0.48920000  0.08333000  1
  C  C140  1  0.74350000  0.34260000  0.07040000  1
  C  C141  1  0.74350000  0.40090000  0.76293000  1
  C  C142  1  0.74060000  0.82590000  0.87633000  1
  C  C143  1  0.74060000  0.91470000  0.95700000  1
  C  C144  1  0.70670000  0.35335000  0.41667000  1
  C  C145  1  0.70660000  0.20510000  0.44340000  1
  C  C146  1  0.70660000  0.50150000  0.38993000  1
  C  C147  1  0.70480000  0.06990000  0.48590000  1
  C  C148  1  0.70480000  0.63490000  0.34743000  1
  C  C149  1  0.69670000  0.78830000  0.62467000  1
  C  C150  1  0.69670000  0.90840000  0.20867000  1
  C  C151  1  0.66620000  0.12820000  0.47870000  1
  C  C152  1  0.66620000  0.53800000  0.35463000  1
  C  C153  1  0.66140000  0.82900000  0.24147000  1
  C  C154  1  0.66140000  0.83240000  0.59187000  1
  C  C155  1  0.65740000  0.25650000  0.42960000  1
  C  C156  1  0.65740000  0.40090000  0.40373000  1
  C  C157  1  0.65030000  0.21160000  0.73577000  1
  C  C158  1  0.65030000  0.43870000  0.09757000  1
  C  C159  1  0.64665000  0.29330000  0.08333000  1
  C  C160  1  0.64665000  0.35335000  0.75000000  1
  C  C161  1  0.64370000  0.77870000  0.87593000  1
  C  C162  1  0.64370000  0.86500000  0.95740000  1
  C  C163  1  0.63490000  0.70480000  0.65257000  1
  C  C164  1  0.63490000  0.93010000  0.18077000  1
  C  C165  1  0.59910000  0.25650000  0.73707000  1
  C  C166  1  0.59910000  0.34260000  0.09627000  1
  C  C167  1  0.59450000  0.79725000  0.91667000  1
  C  C168  1  0.56630000  0.77350000  0.24947000  1
  C  C169  1  0.56630000  0.79280000  0.58387000  1
  C  C170  1  0.56130000  0.21160000  0.43090000  1
  C  C171  1  0.56130000  0.34970000  0.40243000  1
  C  C172  1  0.53800000  0.66620000  0.64537000  1
  C  C173  1  0.53800000  0.87180000  0.18797000  1
  C  C174  1  0.51080000  0.25540000  0.41667000  1
  C  C175  1  0.50150000  0.70660000  0.61007000  1
  C  C176  1  0.50150000  0.79490000  0.22327000  1
  C  C177  1  0.49850000  0.20510000  0.72327000  1
  C  C178  1  0.49850000  0.29340000  0.11007000  1
  C  C179  1  0.48920000  0.74460000  0.91667000  1
  C  C180  1  0.46200000  0.12820000  0.68797000  1
  C  C181  1  0.46200000  0.33380000  0.14537000  1
  C  C182  1  0.43870000  0.65030000  0.90243000  1
  C  C183  1  0.43870000  0.78840000  0.93090000  1
  C  C184  1  0.43370000  0.20720000  0.08387000  1
  C  C185  1  0.43370000  0.22650000  0.74947000  1
  C  C186  1  0.40550000  0.20275000  0.41667000  1
  C  C187  1  0.40090000  0.65740000  0.59627000  1
  C  C188  1  0.40090000  0.74350000  0.23707000  1
  C  C189  1  0.36510000  0.06990000  0.68077000  1
  C  C190  1  0.36510000  0.29520000  0.15257000  1
  C  C191  1  0.35630000  0.13500000  0.45740000  1
  C  C192  1  0.35630000  0.22130000  0.37593000  1
  C  C193  1  0.35335000  0.64665000  0.25000000  1
  C  C194  1  0.35335000  0.70670000  0.58333000  1
  C  C195  1  0.34970000  0.56130000  0.59757000  1
  C  C196  1  0.34970000  0.78840000  0.23577000  1
  C  C197  1  0.34260000  0.59910000  0.90373000  1
  C  C198  1  0.34260000  0.74350000  0.92960000  1
  C  C199  1  0.33860000  0.16760000  0.09187000  1
  C  C200  1  0.33860000  0.17100000  0.74147000  1
  C  C201  1  0.33380000  0.46200000  0.85463000  1
  C  C202  1  0.33380000  0.87180000  0.97870000  1
  C  C203  1  0.30330000  0.09160000  0.70867000  1
  C  C204  1  0.30330000  0.21170000  0.12467000  1
  C  C205  1  0.29520000  0.36510000  0.84743000  1
  C  C206  1  0.29520000  0.93010000  0.98590000  1
  C  C207  1  0.29340000  0.49850000  0.88993000  1
  C  C208  1  0.29340000  0.79490000  0.94340000  1
  C  C209  1  0.29330000  0.64665000  0.91667000  1
  C  C210  1  0.25940000  0.08530000  0.45700000  1
  C  C211  1  0.25940000  0.17410000  0.37633000  1
  C  C212  1  0.25650000  0.59910000  0.26293000  1
  C  C213  1  0.25650000  0.65740000  0.57040000  1
  C  C214  1  0.25540000  0.51080000  0.58333000  1
  C  C215  1  0.25540000  0.74460000  0.25000000  1
  C  C216  1  0.22650000  0.43370000  0.25053000  1
  C  C217  1  0.22650000  0.79280000  0.58280000  1
  C  C218  1  0.22130000  0.35630000  0.62407000  1
  C  C219  1  0.22130000  0.86500000  0.20927000  1
  C  C220  1  0.21170000  0.30330000  0.87533000  1
  C  C221  1  0.21170000  0.90840000  0.95800000  1
  C  C222  1  0.21160000  0.56130000  0.56910000  1
  C  C223  1  0.21160000  0.65030000  0.26423000  1
  C  C224  1  0.20950000  0.10475000  0.41667000  1
  C  C225  1  0.20720000  0.43370000  0.91613000  1
  C  C226  1  0.20720000  0.77350000  0.91720000  1
  C  C227  1  0.20510000  0.49850000  0.27673000  1
  C  C228  1  0.20510000  0.70660000  0.55660000  1
  C  C229  1  0.20275000  0.40550000  0.58333000  1
  C  C230  1  0.20275000  0.79725000  0.25000000  1
  C  C231  1  0.19870000  0.02450000  0.70407000  1
  C  C232  1  0.19870000  0.17420000  0.12927000  1
  C  C233  1  0.17420000  0.19870000  0.87073000  1
  C  C234  1  0.17420000  0.97550000  0.96260000  1
  C  C235  1  0.17410000  0.25940000  0.62367000  1
  C  C236  1  0.17410000  0.91470000  0.20967000  1
  C  C237  1  0.17100000  0.33860000  0.25853000  1
  C  C238  1  0.17100000  0.83240000  0.57480000  1
  C  C239  1  0.16760000  0.33860000  0.90813000  1
  C  C240  1  0.16760000  0.82900000  0.92520000  1
  C  C241  1  0.13500000  0.35630000  0.54260000  1
  C  C242  1  0.13500000  0.77870000  0.29073000  1
  C  C243  1  0.12820000  0.46200000  0.31203000  1
  C  C244  1  0.12820000  0.66620000  0.52130000  1
  C  C245  1  0.10475000  0.20950000  0.58333000  1
  C  C246  1  0.10475000  0.89525000  0.25000000  1
  C  C247  1  0.10410000  0.05205000  0.41667000  1
  C  C248  1  0.09160000  0.30330000  0.29133000  1
  C  C249  1  0.09160000  0.78830000  0.54200000  1
  C  C250  1  0.08530000  0.25940000  0.54300000  1
  C  C251  1  0.08530000  0.82590000  0.29033000  1
  C  C252  1  0.06990000  0.36510000  0.31923000  1
  C  C253  1  0.06990000  0.70480000  0.51410000  1
  C  C254  1  0.05205000  0.10410000  0.58333000  1
  C  C255  1  0.05205000  0.94795000  0.25000000  1
  C  C256  1  0.02450000  0.19870000  0.29593000  1
  C  C257  1  0.02450000  0.82580000  0.53740000  1
  O  O258  1  0.99370000  0.06420000  0.54510000  1
  O  O259  1  0.99370000  0.92950000  0.28823000  1
  O  O260  1  0.96700000  0.10860000  0.06880000  1
  O  O261  1  0.96700000  0.85840000  0.76453000  1
  O  O262  1  0.95950000  0.16950000  0.33173000  1
  O  O263  1  0.95950000  0.79000000  0.50160000  1
  O  O264  1  0.93580000  0.00630000  0.95490000  1
  O  O265  1  0.93580000  0.92950000  0.87843000  1
  O  O266  1  0.92950000  0.93580000  0.12157000  1
  O  O267  1  0.92950000  0.99370000  0.71177000  1
  O  O268  1  0.89140000  0.03300000  0.43120000  1
  O  O269  1  0.89140000  0.85840000  0.40213000  1
  O  O270  1  0.85840000  0.89140000  0.59787000  1
  O  O271  1  0.85840000  0.96700000  0.23547000  1
  O  O272  1  0.83050000  0.04050000  0.16827000  1
  O  O273  1  0.83050000  0.79000000  0.66507000  1
  O  O274  1  0.79000000  0.83050000  0.33493000  1
  O  O275  1  0.79000000  0.95950000  0.49840000  1
  O  O276  1  0.21000000  0.04050000  0.99840000  1
  O  O277  1  0.21000000  0.16950000  0.83493000  1
  O  O278  1  0.16950000  0.21000000  0.16507000  1
  O  O279  1  0.16950000  0.95950000  0.66827000  1
  O  O280  1  0.14160000  0.03300000  0.73547000  1
  O  O281  1  0.14160000  0.10860000  0.09787000  1
  O  O282  1  0.10860000  0.14160000  0.90213000  1
  O  O283  1  0.10860000  0.96700000  0.93120000  1
  O  O284  1  0.07050000  0.00630000  0.21177000  1
  O  O285  1  0.07050000  0.06420000  0.62157000  1
  O  O286  1  0.06420000  0.07050000  0.37843000  1
  O  O287  1  0.06420000  0.99370000  0.45490000  1
  O  O288  1  0.04050000  0.21000000  0.00160000  1
  O  O289  1  0.04050000  0.83050000  0.83173000  1
  O  O290  1  0.03300000  0.14160000  0.26453000  1
  O  O291  1  0.03300000  0.89140000  0.56880000  1
  O  O292  1  0.00630000  0.07050000  0.78823000  1
  O  O293  1  0.00630000  0.93580000  0.04510000  1
