# generated using pymatgen
data_Yb2H6C18(SO4)3
_symmetry_space_group_name_H-M   'P 1'
_cell_length_a   11.49200000
_cell_length_b   17.32600000
_cell_length_c   17.32600000
_cell_angle_alpha   106.05000000
_cell_angle_beta   90.00000000
_cell_angle_gamma   90.00000000
_symmetry_Int_Tables_number   1
_chemical_formula_structural   Yb2H6C18(SO4)3
_chemical_formula_sum   'Yb8 H24 C72 S12 O48'
_cell_volume   3315.31669681
_cell_formula_units_Z   4
loop_
 _symmetry_equiv_pos_site_id
 _symmetry_equiv_pos_as_xyz
  1  'x, y, z'
loop_
 _atom_site_type_symbol
 _atom_site_label
 _atom_site_symmetry_multiplicity
 _atom_site_fract_x
 _atom_site_fract_y
 _atom_site_fract_z
 _atom_site_occupancy
  Yb  Yb0  1  0.05522000  0.89109000  0.51501000  1
  Yb  Yb1  1  0.10633000  0.58427000  0.49054000  1
  Yb  Yb2  1  0.39367000  0.08427000  0.99054000  1
  Yb  Yb3  1  0.44478000  0.39109000  0.01501000  1
  Yb  Yb4  1  0.55522000  0.60891000  0.98499000  1
  Yb  Yb5  1  0.60633000  0.91573000  0.00946000  1
  Yb  Yb6  1  0.89367000  0.41573000  0.50946000  1
  Yb  Yb7  1  0.94478000  0.10891000  0.48499000  1
  H  H8  1  0.03740000  0.41910000  0.71240000  1
  H  H9  1  0.12150000  0.22670000  0.32530000  1
  H  H10  1  0.13060000  0.40860000  0.83710000  1
  H  H11  1  0.15830000  0.22640000  0.66330000  1
  H  H12  1  0.21280000  0.17350000  0.19370000  1
  H  H13  1  0.22920000  0.79700000  0.28390000  1
  H  H14  1  0.27080000  0.29700000  0.78390000  1
  H  H15  1  0.28720000  0.67350000  0.69370000  1
  H  H16  1  0.34170000  0.72640000  0.16330000  1
  H  H17  1  0.36940000  0.90860000  0.33710000  1
  H  H18  1  0.37850000  0.72670000  0.82530000  1
  H  H19  1  0.46260000  0.91910000  0.21240000  1
  H  H20  1  0.53740000  0.08090000  0.78760000  1
  H  H21  1  0.62150000  0.27330000  0.17470000  1
  H  H22  1  0.63060000  0.09140000  0.66290000  1
  H  H23  1  0.65830000  0.27360000  0.83670000  1
  H  H24  1  0.71280000  0.32650000  0.30630000  1
  H  H25  1  0.72920000  0.70300000  0.21610000  1
  H  H26  1  0.77080000  0.20300000  0.71610000  1
  H  H27  1  0.78720000  0.82650000  0.80630000  1
  H  H28  1  0.84170000  0.77360000  0.33670000  1
  H  H29  1  0.86940000  0.59140000  0.16290000  1
  H  H30  1  0.87850000  0.77330000  0.67470000  1
  H  H31  1  0.96260000  0.58090000  0.28760000  1
  C  C32  1  0.10720000  0.44430000  0.73180000  1
  C  C33  1  0.12820000  0.71110000  0.38070000  1
  C  C34  1  0.13850000  0.39010000  0.40470000  1
  C  C35  1  0.14160000  0.06020000  0.61300000  1
  C  C36  1  0.14330000  0.51210000  0.61780000  1
  C  C37  1  0.15870000  0.98850000  0.39070000  1
  C  C38  1  0.16070000  0.43850000  0.80460000  1
  C  C39  1  0.16210000  0.77150000  0.62030000  1
  C  C40  1  0.16480000  0.25760000  0.29950000  1
  C  C41  1  0.16860000  0.49030000  0.69370000  1
  C  C42  1  0.18370000  0.33570000  0.32920000  1
  C  C43  1  0.19340000  0.68930000  0.30500000  1
  C  C44  1  0.19770000  0.20040000  0.69570000  1
  C  C45  1  0.20130000  0.12030000  0.68160000  1
  C  C46  1  0.21890000  0.22700000  0.22340000  1
  C  C47  1  0.22030000  0.78140000  0.69790000  1
  C  C48  1  0.23860000  0.74160000  0.26640000  1
  C  C49  1  0.23960000  0.98150000  0.32050000  1
  C  C50  1  0.26040000  0.48150000  0.82050000  1
  C  C51  1  0.26140000  0.24160000  0.76640000  1
  C  C52  1  0.27970000  0.28140000  0.19790000  1
  C  C53  1  0.28110000  0.72700000  0.72340000  1
  C  C54  1  0.29870000  0.62030000  0.18160000  1
  C  C55  1  0.30230000  0.70040000  0.19570000  1
  C  C56  1  0.30660000  0.18930000  0.80500000  1
  C  C57  1  0.31630000  0.83570000  0.82920000  1
  C  C58  1  0.33140000  0.99030000  0.19370000  1
  C  C59  1  0.33520000  0.75760000  0.79950000  1
  C  C60  1  0.33790000  0.27150000  0.12030000  1
  C  C61  1  0.33930000  0.93850000  0.30460000  1
  C  C62  1  0.34130000  0.48850000  0.89070000  1
  C  C63  1  0.35670000  0.01210000  0.11780000  1
  C  C64  1  0.35840000  0.56020000  0.11300000  1
  C  C65  1  0.36150000  0.89010000  0.90470000  1
  C  C66  1  0.37180000  0.21110000  0.88070000  1
  C  C67  1  0.39280000  0.94430000  0.23180000  1
  C  C68  1  0.60720000  0.05570000  0.76820000  1
  C  C69  1  0.62820000  0.78890000  0.11930000  1
  C  C70  1  0.63850000  0.10990000  0.09530000  1
  C  C71  1  0.64160000  0.43980000  0.88700000  1
  C  C72  1  0.64330000  0.98790000  0.88220000  1
  C  C73  1  0.65870000  0.51150000  0.10930000  1
  C  C74  1  0.66070000  0.06150000  0.69540000  1
  C  C75  1  0.66210000  0.72850000  0.87970000  1
  C  C76  1  0.66480000  0.24240000  0.20050000  1
  C  C77  1  0.66860000  0.00970000  0.80630000  1
  C  C78  1  0.68370000  0.16430000  0.17080000  1
  C  C79  1  0.69340000  0.81070000  0.19500000  1
  C  C80  1  0.69770000  0.29960000  0.80430000  1
  C  C81  1  0.70130000  0.37970000  0.81840000  1
  C  C82  1  0.71890000  0.27300000  0.27660000  1
  C  C83  1  0.72030000  0.71860000  0.80210000  1
  C  C84  1  0.73860000  0.75840000  0.23360000  1
  C  C85  1  0.73960000  0.51850000  0.17950000  1
  C  C86  1  0.76040000  0.01850000  0.67950000  1
  C  C87  1  0.76140000  0.25840000  0.73360000  1
  C  C88  1  0.77970000  0.21860000  0.30210000  1
  C  C89  1  0.78110000  0.77300000  0.77660000  1
  C  C90  1  0.79870000  0.87970000  0.31840000  1
  C  C91  1  0.80230000  0.79960000  0.30430000  1
  C  C92  1  0.80660000  0.31070000  0.69500000  1
  C  C93  1  0.81630000  0.66430000  0.67080000  1
  C  C94  1  0.83140000  0.50970000  0.30630000  1
  C  C95  1  0.83520000  0.74240000  0.70050000  1
  C  C96  1  0.83790000  0.22850000  0.37970000  1
  C  C97  1  0.83930000  0.56150000  0.19540000  1
  C  C98  1  0.84130000  0.01150000  0.60930000  1
  C  C99  1  0.85670000  0.48790000  0.38220000  1
  C  C100  1  0.85840000  0.93980000  0.38700000  1
  C  C101  1  0.86150000  0.60990000  0.59530000  1
  C  C102  1  0.87180000  0.28890000  0.61930000  1
  C  C103  1  0.89280000  0.55570000  0.26820000  1
  S  S104  1  0.21060000  0.02890000  0.24885000  1
  S  S105  1  0.21830000  0.59252000  0.25164000  1
  S  S106  1  0.23000000  0.87356000  0.76656000  1
  S  S107  1  0.27000000  0.37356000  0.26656000  1
  S  S108  1  0.28170000  0.09252000  0.75164000  1
  S  S109  1  0.28940000  0.52890000  0.74885000  1
  S  S110  1  0.71060000  0.47110000  0.25115000  1
  S  S111  1  0.71830000  0.90748000  0.24836000  1
  S  S112  1  0.73000000  0.62644000  0.73344000  1
  S  S113  1  0.77000000  0.12644000  0.23344000  1
  S  S114  1  0.78170000  0.40748000  0.74836000  1
  S  S115  1  0.78940000  0.97110000  0.75115000  1
  O  O116  1  0.04610000  0.49170000  0.58340000  1
  O  O117  1  0.06070000  0.36360000  0.44340000  1
  O  O118  1  0.07290000  0.08510000  0.57050000  1
  O  O119  1  0.07820000  0.65490000  0.40280000  1
  O  O120  1  0.08030000  0.04090000  0.39570000  1
  O  O121  1  0.12420000  0.78260000  0.41950000  1
  O  O122  1  0.12790000  0.83230000  0.60340000  1
  O  O123  1  0.15480000  0.70390000  0.57310000  1
  O  O124  1  0.16550000  0.98820000  0.60590000  1
  O  O125  1  0.17230000  0.94360000  0.43510000  1
  O  O126  1  0.17480000  0.46130000  0.42350000  1
  O  O127  1  0.21400000  0.55200000  0.59290000  1
  O  O128  1  0.28600000  0.05200000  0.09290000  1
  O  O129  1  0.32520000  0.96130000  0.92350000  1
  O  O130  1  0.32770000  0.44360000  0.93510000  1
  O  O131  1  0.33450000  0.48820000  0.10590000  1
  O  O132  1  0.34520000  0.20390000  0.07310000  1
  O  O133  1  0.37210000  0.33230000  0.10340000  1
  O  O134  1  0.37580000  0.28260000  0.91950000  1
  O  O135  1  0.41970000  0.54090000  0.89570000  1
  O  O136  1  0.42180000  0.15490000  0.90280000  1
  O  O137  1  0.42710000  0.58510000  0.07050000  1
  O  O138  1  0.43930000  0.86360000  0.94340000  1
  O  O139  1  0.45390000  0.99170000  0.08340000  1
  O  O140  1  0.54610000  0.00830000  0.91660000  1
  O  O141  1  0.56070000  0.13640000  0.05660000  1
  O  O142  1  0.57290000  0.41490000  0.92950000  1
  O  O143  1  0.57820000  0.84510000  0.09720000  1
  O  O144  1  0.58030000  0.45910000  0.10430000  1
  O  O145  1  0.62420000  0.71740000  0.08050000  1
  O  O146  1  0.62790000  0.66770000  0.89660000  1
  O  O147  1  0.65480000  0.79610000  0.92690000  1
  O  O148  1  0.66550000  0.51180000  0.89410000  1
  O  O149  1  0.67230000  0.55640000  0.06490000  1
  O  O150  1  0.67480000  0.03870000  0.07650000  1
  O  O151  1  0.71400000  0.94800000  0.90710000  1
  O  O152  1  0.78600000  0.44800000  0.40710000  1
  O  O153  1  0.82520000  0.53870000  0.57650000  1
  O  O154  1  0.82770000  0.05640000  0.56490000  1
  O  O155  1  0.83450000  0.01180000  0.39410000  1
  O  O156  1  0.84520000  0.29610000  0.42690000  1
  O  O157  1  0.87210000  0.16770000  0.39660000  1
  O  O158  1  0.87580000  0.21740000  0.58050000  1
  O  O159  1  0.91970000  0.95910000  0.60430000  1
  O  O160  1  0.92180000  0.34510000  0.59720000  1
  O  O161  1  0.92710000  0.91490000  0.42950000  1
  O  O162  1  0.93930000  0.63640000  0.55660000  1
  O  O163  1  0.95390000  0.50830000  0.41660000  1
