# generated using pymatgen
data_CuH15C18I(NO)2
_symmetry_space_group_name_H-M   'P 1'
_cell_length_a   12.71600000
_cell_length_b   12.71600000
_cell_length_c   62.07800000
_cell_angle_alpha   90.00000000
_cell_angle_beta   90.00000000
_cell_angle_gamma   90.00000000
_symmetry_Int_Tables_number   1
_chemical_formula_structural   CuH15C18I(NO)2
_chemical_formula_sum   'Cu16 H240 C288 I16 N32 O32'
_cell_volume   10037.80501117
_cell_formula_units_Z   16
loop_
 _symmetry_equiv_pos_site_id
 _symmetry_equiv_pos_as_xyz
  1  'x, y, z'
loop_
 _atom_site_type_symbol
 _atom_site_label
 _atom_site_symmetry_multiplicity
 _atom_site_fract_x
 _atom_site_fract_y
 _atom_site_fract_z
 _atom_site_occupancy
  Cu  Cu0  1  0.00476000  0.05523000  0.38466000  1
  Cu  Cu1  1  0.02989000  0.05077000  0.42531000  1
  Cu  Cu2  1  0.05077000  0.02989000  0.57470000  1
  Cu  Cu3  1  0.05523000  0.00476000  0.61534000  1
  Cu  Cu4  1  0.44477000  0.50476000  0.13466000  1
  Cu  Cu5  1  0.44923000  0.52989000  0.17531000  1
  Cu  Cu6  1  0.47011000  0.55077000  0.32470000  1
  Cu  Cu7  1  0.49524000  0.55523000  0.36534000  1
  Cu  Cu8  1  0.50476000  0.44477000  0.86534000  1
  Cu  Cu9  1  0.52989000  0.44923000  0.82470000  1
  Cu  Cu10  1  0.55077000  0.47011000  0.67531000  1
  Cu  Cu11  1  0.55523000  0.49524000  0.63466000  1
  Cu  Cu12  1  0.94477000  0.99524000  0.11534000  1
  Cu  Cu13  1  0.94923000  0.97011000  0.07470000  1
  Cu  Cu14  1  0.97011000  0.94923000  0.92531000  1
  Cu  Cu15  1  0.99524000  0.94477000  0.88466000  1
  H  H16  1  0.01430000  0.44360000  0.85130000  1
  H  H17  1  0.02640000  0.12220000  0.15230000  1
  H  H18  1  0.03320000  0.06830000  0.03530000  1
  H  H19  1  0.03500000  0.73950000  0.03180000  1
  H  H20  1  0.05640000  0.51430000  0.60130000  1
  H  H21  1  0.05750000  0.55930000  0.45830000  1
  H  H22  1  0.05930000  0.44250000  0.70830000  1
  H  H23  1  0.05990000  0.58510000  0.94980000  1
  H  H24  1  0.06200000  0.17770000  0.98840000  1
  H  H25  1  0.06430000  0.84820000  0.27860000  1
  H  H26  1  0.06830000  0.03320000  0.96470000  1
  H  H27  1  0.07060000  0.73590000  0.92930000  1
  H  H28  1  0.07130000  0.27760000  0.32010000  1
  H  H29  1  0.07280000  0.70950000  0.00800000  1
  H  H30  1  0.08510000  0.44010000  0.19980000  1
  H  H31  1  0.08690000  0.62700000  0.02730000  1
  H  H32  1  0.08940000  0.82270000  0.30330000  1
  H  H33  1  0.09190000  0.13800000  0.34330000  1
  H  H34  1  0.09950000  0.36050000  0.11080000  1
  H  H35  1  0.11670000  0.70580000  0.35610000  1
  H  H36  1  0.11720000  0.74310000  0.88290000  1
  H  H37  1  0.12150000  0.74050000  0.28500000  1
  H  H38  1  0.12220000  0.02640000  0.84770000  1
  H  H39  1  0.12220000  0.85320000  0.37710000  1
  H  H40  1  0.12700000  0.41310000  0.27730000  1
  H  H41  1  0.13030000  0.15400000  0.53700000  1
  H  H42  1  0.13180000  0.28910000  0.03630000  1
  H  H43  1  0.13540000  0.16900000  0.82540000  1
  H  H44  1  0.13800000  0.09190000  0.65670000  1
  H  H45  1  0.13950000  0.59950000  0.86080000  1
  H  H46  1  0.14050000  0.83240000  0.06910000  1
  H  H47  1  0.14150000  0.84190000  0.53420000  1
  H  H48  1  0.14680000  0.87780000  0.12290000  1
  H  H49  1  0.15180000  0.93570000  0.22140000  1
  H  H50  1  0.15400000  0.13030000  0.46300000  1
  H  H51  1  0.15810000  0.85850000  0.96580000  1
  H  H52  1  0.16010000  0.74690000  0.78710000  1
  H  H53  1  0.16340000  0.27210000  0.48570000  1
  H  H54  1  0.16760000  0.85950000  0.43090000  1
  H  H55  1  0.16900000  0.13540000  0.17460000  1
  H  H56  1  0.17730000  0.91060000  0.19670000  1
  H  H57  1  0.17770000  0.06200000  0.01160000  1
  H  H58  1  0.17980000  0.68330000  0.80900000  1
  H  H59  1  0.18110000  0.71270000  0.45280000  1
  H  H60  1  0.18330000  0.32020000  0.05900000  1
  H  H61  1  0.18930000  0.72540000  0.53400000  1
  H  H62  1  0.19220000  0.79560000  0.51260000  1
  H  H63  1  0.20440000  0.80780000  0.98740000  1
  H  H64  1  0.20580000  0.38330000  0.60610000  1
  H  H65  1  0.20950000  0.42720000  0.25800000  1
  H  H66  1  0.21090000  0.63180000  0.78630000  1
  H  H67  1  0.21270000  0.31890000  0.70280000  1
  H  H68  1  0.22240000  0.57130000  0.07010000  1
  H  H69  1  0.22540000  0.31070000  0.78400000  1
  H  H70  1  0.22790000  0.66340000  0.23570000  1
  H  H71  1  0.23590000  0.42940000  0.17930000  1
  H  H72  1  0.23950000  0.46500000  0.28180000  1
  H  H73  1  0.24050000  0.37850000  0.53500000  1
  H  H74  1  0.24310000  0.38280000  0.13290000  1
  H  H75  1  0.24690000  0.33990000  0.03710000  1
  H  H76  1  0.25310000  0.83990000  0.71290000  1
  H  H77  1  0.25690000  0.88280000  0.61710000  1
  H  H78  1  0.25950000  0.87850000  0.21500000  1
  H  H79  1  0.26050000  0.96500000  0.46820000  1
  H  H80  1  0.26410000  0.92940000  0.57070000  1
  H  H81  1  0.27210000  0.16340000  0.51430000  1
  H  H82  1  0.27460000  0.81070000  0.96600000  1
  H  H83  1  0.27760000  0.07130000  0.67990000  1
  H  H84  1  0.28730000  0.81890000  0.04720000  1
  H  H85  1  0.28910000  0.13180000  0.96370000  1
  H  H86  1  0.29050000  0.92720000  0.49200000  1
  H  H87  1  0.29420000  0.88330000  0.14390000  1
  H  H88  1  0.29560000  0.30780000  0.76260000  1
  H  H89  1  0.30780000  0.29560000  0.23740000  1
  H  H90  1  0.31070000  0.22540000  0.21600000  1
  H  H91  1  0.31670000  0.82020000  0.69100000  1
  H  H92  1  0.31890000  0.21270000  0.29720000  1
  H  H93  1  0.32020000  0.18330000  0.94100000  1
  H  H94  1  0.32230000  0.56200000  0.73840000  1
  H  H95  1  0.32270000  0.41060000  0.55330000  1
  H  H96  1  0.33100000  0.63540000  0.57540000  1
  H  H97  1  0.33240000  0.35950000  0.31910000  1
  H  H98  1  0.33660000  0.77210000  0.26430000  1
  H  H99  1  0.33990000  0.24690000  0.96290000  1
  H  H100  1  0.34190000  0.35850000  0.78420000  1
  H  H101  1  0.34600000  0.63030000  0.28700000  1
  H  H102  1  0.34820000  0.43570000  0.52860000  1
  H  H103  1  0.35320000  0.37780000  0.62710000  1
  H  H104  1  0.35850000  0.34190000  0.21580000  1
  H  H105  1  0.35950000  0.33240000  0.68090000  1
  H  H106  1  0.36050000  0.09950000  0.88920000  1
  H  H107  1  0.36200000  0.59190000  0.09330000  1
  H  H108  1  0.36460000  0.66900000  0.92460000  1
  H  H109  1  0.36820000  0.78910000  0.71370000  1
  H  H110  1  0.36970000  0.65400000  0.21300000  1
  H  H111  1  0.37300000  0.91310000  0.47270000  1
  H  H112  1  0.37780000  0.35320000  0.37290000  1
  H  H113  1  0.37780000  0.52640000  0.90230000  1
  H  H114  1  0.37850000  0.24050000  0.46500000  1
  H  H115  1  0.38280000  0.24310000  0.86710000  1
  H  H116  1  0.38330000  0.20580000  0.39390000  1
  H  H117  1  0.40050000  0.86050000  0.63920000  1
  H  H118  1  0.40810000  0.63800000  0.40670000  1
  H  H119  1  0.41060000  0.32270000  0.44670000  1
  H  H120  1  0.41310000  0.12700000  0.72270000  1
  H  H121  1  0.41490000  0.94010000  0.55020000  1
  H  H122  1  0.42720000  0.20950000  0.74200000  1
  H  H123  1  0.42870000  0.77760000  0.42990000  1
  H  H124  1  0.42940000  0.23590000  0.82070000  1
  H  H125  1  0.43170000  0.53320000  0.78530000  1
  H  H126  1  0.43570000  0.34820000  0.47140000  1
  H  H127  1  0.43800000  0.67770000  0.76160000  1
  H  H128  1  0.44010000  0.08510000  0.80020000  1
  H  H129  1  0.44070000  0.94250000  0.04170000  1
  H  H130  1  0.44250000  0.05930000  0.29170000  1
  H  H131  1  0.44360000  0.01430000  0.14870000  1
  H  H132  1  0.46500000  0.23950000  0.71820000  1
  H  H133  1  0.46680000  0.56830000  0.71470000  1
  H  H134  1  0.47360000  0.62220000  0.59770000  1
  H  H135  1  0.48570000  0.94360000  0.89870000  1
  H  H136  1  0.51430000  0.05640000  0.39870000  1
  H  H137  1  0.52640000  0.37780000  0.09770000  1
  H  H138  1  0.53320000  0.43170000  0.21470000  1
  H  H139  1  0.53500000  0.76050000  0.21820000  1
  H  H140  1  0.55640000  0.98570000  0.64870000  1
  H  H141  1  0.55750000  0.94070000  0.79170000  1
  H  H142  1  0.55930000  0.05750000  0.54170000  1
  H  H143  1  0.55990000  0.91490000  0.30020000  1
  H  H144  1  0.56200000  0.32230000  0.26160000  1
  H  H145  1  0.56430000  0.65180000  0.97140000  1
  H  H146  1  0.56830000  0.46680000  0.28530000  1
  H  H147  1  0.57060000  0.76410000  0.32070000  1
  H  H148  1  0.57130000  0.22240000  0.92990000  1
  H  H149  1  0.57280000  0.79050000  0.24200000  1
  H  H150  1  0.58510000  0.05990000  0.05020000  1
  H  H151  1  0.58690000  0.87300000  0.22270000  1
  H  H152  1  0.58940000  0.67730000  0.94670000  1
  H  H153  1  0.59190000  0.36200000  0.90670000  1
  H  H154  1  0.59950000  0.13950000  0.13920000  1
  H  H155  1  0.61670000  0.79420000  0.89390000  1
  H  H156  1  0.61720000  0.75690000  0.36710000  1
  H  H157  1  0.62150000  0.75950000  0.96500000  1
  H  H158  1  0.62220000  0.47360000  0.40230000  1
  H  H159  1  0.62220000  0.64680000  0.87290000  1
  H  H160  1  0.62700000  0.08690000  0.97270000  1
  H  H161  1  0.63030000  0.34600000  0.71300000  1
  H  H162  1  0.63180000  0.21090000  0.21370000  1
  H  H163  1  0.63540000  0.33100000  0.42460000  1
  H  H164  1  0.63800000  0.40810000  0.59330000  1
  H  H165  1  0.63950000  0.90050000  0.38920000  1
  H  H166  1  0.64050000  0.66760000  0.18090000  1
  H  H167  1  0.64150000  0.65810000  0.71580000  1
  H  H168  1  0.64680000  0.62220000  0.12710000  1
  H  H169  1  0.65180000  0.56430000  0.02860000  1
  H  H170  1  0.65400000  0.36970000  0.78700000  1
  H  H171  1  0.65810000  0.64150000  0.28420000  1
  H  H172  1  0.66010000  0.75310000  0.46290000  1
  H  H173  1  0.66340000  0.22790000  0.76430000  1
  H  H174  1  0.66760000  0.64050000  0.81910000  1
  H  H175  1  0.66900000  0.36460000  0.07540000  1
  H  H176  1  0.67730000  0.58940000  0.05330000  1
  H  H177  1  0.67770000  0.43800000  0.23840000  1
  H  H178  1  0.67980000  0.81670000  0.44100000  1
  H  H179  1  0.68110000  0.78730000  0.79720000  1
  H  H180  1  0.68330000  0.17980000  0.19100000  1
  H  H181  1  0.68930000  0.77460000  0.71600000  1
  H  H182  1  0.69220000  0.70440000  0.73740000  1
  H  H183  1  0.70440000  0.69220000  0.26260000  1
  H  H184  1  0.70580000  0.11670000  0.64390000  1
  H  H185  1  0.70950000  0.07280000  0.99200000  1
  H  H186  1  0.71090000  0.86820000  0.46370000  1
  H  H187  1  0.71270000  0.18110000  0.54720000  1
  H  H188  1  0.72240000  0.92870000  0.17990000  1
  H  H189  1  0.72540000  0.18930000  0.46600000  1
  H  H190  1  0.72790000  0.83660000  0.01430000  1
  H  H191  1  0.73590000  0.07060000  0.07070000  1
  H  H192  1  0.73950000  0.03500000  0.96820000  1
  H  H193  1  0.74050000  0.12150000  0.71500000  1
  H  H194  1  0.74310000  0.11720000  0.11710000  1
  H  H195  1  0.74690000  0.16010000  0.21290000  1
  H  H196  1  0.75310000  0.66010000  0.53710000  1
  H  H197  1  0.75690000  0.61720000  0.63290000  1
  H  H198  1  0.75950000  0.62150000  0.03500000  1
  H  H199  1  0.76050000  0.53500000  0.78180000  1
  H  H200  1  0.76410000  0.57060000  0.67930000  1
  H  H201  1  0.77210000  0.33660000  0.73570000  1
  H  H202  1  0.77460000  0.68930000  0.28400000  1
  H  H203  1  0.77760000  0.42870000  0.57010000  1
  H  H204  1  0.78730000  0.68110000  0.20280000  1
  H  H205  1  0.78910000  0.36820000  0.28630000  1
  H  H206  1  0.79050000  0.57280000  0.75800000  1
  H  H207  1  0.79420000  0.61670000  0.10610000  1
  H  H208  1  0.79560000  0.19220000  0.48740000  1
  H  H209  1  0.80780000  0.20440000  0.01260000  1
  H  H210  1  0.81070000  0.27460000  0.03400000  1
  H  H211  1  0.81670000  0.67980000  0.55900000  1
  H  H212  1  0.81890000  0.28730000  0.95280000  1
  H  H213  1  0.82020000  0.31670000  0.30900000  1
  H  H214  1  0.82230000  0.93800000  0.51160000  1
  H  H215  1  0.82270000  0.08940000  0.69670000  1
  H  H216  1  0.83100000  0.86460000  0.67460000  1
  H  H217  1  0.83240000  0.14050000  0.93090000  1
  H  H218  1  0.83660000  0.72790000  0.98570000  1
  H  H219  1  0.83990000  0.25310000  0.28710000  1
  H  H220  1  0.84190000  0.14150000  0.46580000  1
  H  H221  1  0.84600000  0.86970000  0.96300000  1
  H  H222  1  0.84820000  0.06430000  0.72140000  1
  H  H223  1  0.85320000  0.12220000  0.62290000  1
  H  H224  1  0.85850000  0.15810000  0.03420000  1
  H  H225  1  0.85950000  0.16760000  0.56910000  1
  H  H226  1  0.86050000  0.40050000  0.36080000  1
  H  H227  1  0.86200000  0.90810000  0.15670000  1
  H  H228  1  0.86460000  0.83100000  0.32540000  1
  H  H229  1  0.86820000  0.71090000  0.53630000  1
  H  H230  1  0.86970000  0.84600000  0.03700000  1
  H  H231  1  0.87300000  0.58690000  0.77730000  1
  H  H232  1  0.87780000  0.14680000  0.87710000  1
  H  H233  1  0.87780000  0.97360000  0.34770000  1
  H  H234  1  0.87850000  0.25950000  0.78500000  1
  H  H235  1  0.88280000  0.25690000  0.38290000  1
  H  H236  1  0.88330000  0.29420000  0.85610000  1
  H  H237  1  0.90050000  0.63950000  0.61080000  1
  H  H238  1  0.90810000  0.86200000  0.84330000  1
  H  H239  1  0.91060000  0.17730000  0.80330000  1
  H  H240  1  0.91310000  0.37300000  0.52730000  1
  H  H241  1  0.91490000  0.55990000  0.69980000  1
  H  H242  1  0.92720000  0.29050000  0.50800000  1
  H  H243  1  0.92870000  0.72240000  0.82010000  1
  H  H244  1  0.92940000  0.26410000  0.42930000  1
  H  H245  1  0.93170000  0.96680000  0.46470000  1
  H  H246  1  0.93570000  0.15180000  0.77860000  1
  H  H247  1  0.93800000  0.82230000  0.48840000  1
  H  H248  1  0.94010000  0.41490000  0.44980000  1
  H  H249  1  0.94070000  0.55750000  0.20830000  1
  H  H250  1  0.94250000  0.44070000  0.95830000  1
  H  H251  1  0.94360000  0.48570000  0.10130000  1
  H  H252  1  0.96500000  0.26050000  0.53180000  1
  H  H253  1  0.96680000  0.93170000  0.53530000  1
  H  H254  1  0.97360000  0.87780000  0.65230000  1
  H  H255  1  0.98570000  0.55640000  0.35130000  1
  C  C256  1  0.01420000  0.25160000  0.83870000  1
  C  C257  1  0.01480000  0.17330000  0.97657000  1
  C  C258  1  0.01670000  0.64390000  0.95309000  1
  C  C259  1  0.01700000  0.08620000  0.96238000  1
  C  C260  1  0.02140000  0.73360000  0.94075000  1
  C  C261  1  0.02230000  0.44430000  0.83605000  1
  C  C262  1  0.02270000  0.35140000  0.82568000  1
  C  C263  1  0.02860000  0.63830000  0.83856000  1
  C  C264  1  0.03100000  0.35060000  0.80372000  1
  C  C265  1  0.03300000  0.54140000  0.82592000  1
  C  C266  1  0.03390000  0.27720000  0.33333333  1
  C  C267  1  0.03700000  0.45340000  0.05359000  1
  C  C268  1  0.04140000  0.46700000  0.07592000  1
  C  C269  1  0.04170000  0.68230000  0.02135000  1
  C  C270  1  0.04240000  0.55600000  0.23349000  1
  C  C271  1  0.04320000  0.44550000  0.79227000  1
  C  C272  1  0.04350000  0.19210000  0.34686000  1
  C  C273  1  0.04460000  0.55800000  0.25594000  1
  C  C274  1  0.04660000  0.53700000  0.80359000  1
  C  C275  1  0.04860000  0.44480000  0.76806000  1
  C  C276  1  0.05200000  0.35950000  0.47042000  1
  C  C277  1  0.05450000  0.54320000  0.54227000  1
  C  C278  1  0.05520000  0.54860000  0.51806000  1
  C  C279  1  0.05570000  0.52230000  0.58605000  1
  C  C280  1  0.05600000  0.45760000  0.48349000  1
  C  C281  1  0.05600000  0.64360000  0.50746000  1
  C  C282  1  0.05630000  0.44220000  0.72359000  1
  C  C283  1  0.05780000  0.55630000  0.47359000  1
  C  C284  1  0.05780000  0.74870000  0.47273000  1
  C  C285  1  0.05800000  0.45540000  0.50594000  1
  C  C286  1  0.06010000  0.64830000  0.48477000  1
  C  C287  1  0.06560000  0.75950000  0.35422000  1
  C  C288  1  0.06890000  0.79230000  0.28944000  1
  C  C289  1  0.06890000  0.84790000  0.36642000  1
  C  C290  1  0.07310000  0.08210000  0.84926000  1
  C  C291  1  0.07760000  0.73890000  0.86991000  1
  C  C292  1  0.08210000  0.07310000  0.15074000  1
  C  C293  1  0.08260000  0.16720000  0.83616000  1
  C  C294  1  0.08620000  0.01700000  0.03762000  1
  C  C295  1  0.08930000  0.65160000  0.85703000  1
  C  C296  1  0.10820000  0.18810000  0.46057000  1
  C  C297  1  0.11530000  0.27270000  0.47398000  1
  C  C298  1  0.12020000  0.85150000  0.44262000  1
  C  C299  1  0.12800000  0.76350000  0.45556000  1
  C  C300  1  0.13830000  0.47140000  0.08856000  1
  C  C301  1  0.14050000  0.55200000  0.22042000  1
  C  C302  1  0.14360000  0.44400000  0.75746000  1
  C  C303  1  0.14390000  0.48330000  0.20309000  1
  C  C304  1  0.14830000  0.43990000  0.73477000  1
  C  C305  1  0.14850000  0.87980000  0.05738000  1
  C  C306  1  0.14860000  0.52270000  0.57568000  1
  C  C307  1  0.14940000  0.53100000  0.55372000  1
  C  C308  1  0.15140000  0.77830000  0.52550000  1
  C  C309  1  0.15160000  0.41070000  0.10703000  1
  C  C310  1  0.15210000  0.93110000  0.13358000  1
  C  C311  1  0.16010000  0.67700000  0.79378000  1
  C  C312  1  0.16720000  0.08260000  0.16384000  1
  C  C313  1  0.17330000  0.01480000  0.02343000  1
  C  C314  1  0.17700000  0.33990000  0.04378000  1
  C  C315  1  0.18230000  0.45830000  0.27135000  1
  C  C316  1  0.18810000  0.10820000  0.53943000  1
  C  C317  1  0.19210000  0.04350000  0.65314000  1
  C  C318  1  0.20770000  0.93110000  0.21056000  1
  C  C319  1  0.22170000  0.84860000  0.97450000  1
  C  C320  1  0.22280000  0.53390000  0.08335000  1
  C  C321  1  0.22730000  0.61530000  0.22398000  1
  C  C322  1  0.23360000  0.47860000  0.19075000  1
  C  C323  1  0.23650000  0.87200000  0.04444000  1
  C  C324  1  0.23890000  0.42240000  0.11991000  1
  C  C325  1  0.24050000  0.93440000  0.14578000  1
  C  C326  1  0.24840000  0.51420000  0.58870000  1
  C  C327  1  0.24870000  0.44220000  0.72273000  1
  C  C328  1  0.25130000  0.94220000  0.02727000  1
  C  C329  1  0.25160000  0.01420000  0.16130000  1
  C  C330  1  0.25950000  0.43440000  0.60422000  1
  C  C331  1  0.26110000  0.92240000  0.63009000  1
  C  C332  1  0.26350000  0.37200000  0.70556000  1
  C  C333  1  0.26640000  0.97860000  0.55925000  1
  C  C334  1  0.27270000  0.11530000  0.52602000  1
  C  C335  1  0.27720000  0.03390000  0.66666667  1
  C  C336  1  0.27830000  0.34860000  0.77550000  1
  C  C337  1  0.29230000  0.43110000  0.53944000  1
  C  C338  1  0.30790000  0.54350000  0.09686000  1
  C  C339  1  0.31190000  0.60820000  0.21057000  1
  C  C340  1  0.31770000  0.95830000  0.47865000  1
  C  C341  1  0.32300000  0.83990000  0.70622000  1
  C  C342  1  0.32670000  0.51480000  0.72657000  1
  C  C343  1  0.33280000  0.58260000  0.58616000  1
  C  C344  1  0.33990000  0.17700000  0.95622000  1
  C  C345  1  0.34790000  0.43110000  0.61642000  1
  C  C346  1  0.34840000  0.91070000  0.64297000  1
  C  C347  1  0.34860000  0.27830000  0.22450000  1
  C  C348  1  0.35060000  0.03100000  0.19628000  1
  C  C349  1  0.35140000  0.02270000  0.17432000  1
  C  C350  1  0.35150000  0.37980000  0.69262000  1
  C  C351  1  0.35170000  0.93990000  0.01523000  1
  C  C352  1  0.35610000  0.98330000  0.54691000  1
  C  C353  1  0.35640000  0.94400000  0.99254000  1
  C  C354  1  0.35950000  0.05200000  0.52958000  1
  C  C355  1  0.36170000  0.97140000  0.66144000  1
  C  C356  1  0.37200000  0.26350000  0.29444000  1
  C  C357  1  0.37980000  0.35150000  0.30738000  1
  C  C358  1  0.38470000  0.77270000  0.27602000  1
  C  C359  1  0.39180000  0.68810000  0.28943000  1
  C  C360  1  0.41070000  0.15160000  0.89297000  1
  C  C361  1  0.41380000  0.51700000  0.71238000  1
  C  C362  1  0.41740000  0.66720000  0.91384000  1
  C  C363  1  0.41790000  0.57310000  0.59926000  1
  C  C364  1  0.42240000  0.23890000  0.88009000  1
  C  C365  1  0.42690000  0.58210000  0.90074000  1
  C  C366  1  0.43110000  0.29230000  0.46056000  1
  C  C367  1  0.43110000  0.34790000  0.38358000  1
  C  C368  1  0.43440000  0.25950000  0.39578000  1
  C  C369  1  0.43990000  0.14830000  0.26523000  1
  C  C370  1  0.44200000  0.95540000  0.24406000  1
  C  C371  1  0.44220000  0.05630000  0.27641000  1
  C  C372  1  0.44220000  0.24870000  0.27727000  1
  C  C373  1  0.44370000  0.94220000  0.02641000  1
  C  C374  1  0.44400000  0.14360000  0.24254000  1
  C  C375  1  0.44400000  0.95760000  0.26651000  1
  C  C376  1  0.44430000  0.02230000  0.16395000  1
  C  C377  1  0.44480000  0.04860000  0.23194000  1
  C  C378  1  0.44550000  0.04320000  0.20773000  1
  C  C379  1  0.44800000  0.85950000  0.27958000  1
  C  C380  1  0.45140000  0.94480000  0.98194000  1
  C  C381  1  0.45340000  0.03700000  0.94641000  1
  C  C382  1  0.45540000  0.05800000  0.49406000  1
  C  C383  1  0.45650000  0.69210000  0.40314000  1
  C  C384  1  0.45680000  0.94550000  0.95773000  1
  C  C385  1  0.45760000  0.05600000  0.51651000  1
  C  C386  1  0.45830000  0.18230000  0.72865000  1
  C  C387  1  0.45860000  0.96700000  0.67408000  1
  C  C388  1  0.46300000  0.95340000  0.69641000  1
  C  C389  1  0.46610000  0.77720000  0.41665000  1
  C  C390  1  0.46700000  0.04140000  0.92408000  1
  C  C391  1  0.46900000  0.85060000  0.94628000  1
  C  C392  1  0.47140000  0.13830000  0.91144000  1
  C  C393  1  0.47730000  0.85140000  0.92432000  1
  C  C394  1  0.47770000  0.94430000  0.91395000  1
  C  C395  1  0.47860000  0.23360000  0.80925000  1
  C  C396  1  0.48300000  0.58620000  0.78762000  1
  C  C397  1  0.48330000  0.14390000  0.79691000  1
  C  C398  1  0.48520000  0.67330000  0.77343000  1
  C  C399  1  0.48580000  0.75160000  0.91130000  1
  C  C400  1  0.51420000  0.24840000  0.41130000  1
  C  C401  1  0.51480000  0.32670000  0.27343000  1
  C  C402  1  0.51670000  0.85610000  0.29691000  1
  C  C403  1  0.51700000  0.41380000  0.28762000  1
  C  C404  1  0.52140000  0.76640000  0.30925000  1
  C  C405  1  0.52230000  0.05570000  0.41395000  1
  C  C406  1  0.52270000  0.14860000  0.42432000  1
  C  C407  1  0.52860000  0.86170000  0.41144000  1
  C  C408  1  0.53100000  0.14940000  0.44628000  1
  C  C409  1  0.53300000  0.95860000  0.42408000  1
  C  C410  1  0.53390000  0.22280000  0.91665000  1
  C  C411  1  0.53700000  0.04660000  0.19641000  1
  C  C412  1  0.54140000  0.03300000  0.17408000  1
  C  C413  1  0.54170000  0.81770000  0.22865000  1
  C  C414  1  0.54240000  0.94400000  0.01651000  1
  C  C415  1  0.54320000  0.05450000  0.45773000  1
  C  C416  1  0.54350000  0.30790000  0.90314000  1
  C  C417  1  0.54460000  0.94200000  0.99406000  1
  C  C418  1  0.54660000  0.96300000  0.44641000  1
  C  C419  1  0.54860000  0.05520000  0.48194000  1
  C  C420  1  0.55200000  0.14050000  0.77958000  1
  C  C421  1  0.55450000  0.95680000  0.70773000  1
  C  C422  1  0.55520000  0.95140000  0.73194000  1
  C  C423  1  0.55570000  0.97770000  0.66395000  1
  C  C424  1  0.55600000  0.04240000  0.76651000  1
  C  C425  1  0.55600000  0.85640000  0.74254000  1
  C  C426  1  0.55630000  0.05780000  0.52641000  1
  C  C427  1  0.55780000  0.75130000  0.77727000  1
  C  C428  1  0.55780000  0.94370000  0.77641000  1
  C  C429  1  0.55800000  0.04460000  0.74406000  1
  C  C430  1  0.56010000  0.85170000  0.76523000  1
  C  C431  1  0.56560000  0.74050000  0.89578000  1
  C  C432  1  0.56890000  0.65210000  0.88358000  1
  C  C433  1  0.56890000  0.70770000  0.96056000  1
  C  C434  1  0.57310000  0.41790000  0.40074000  1
  C  C435  1  0.57760000  0.76110000  0.38009000  1
  C  C436  1  0.58210000  0.42690000  0.09926000  1
  C  C437  1  0.58260000  0.33280000  0.41384000  1
  C  C438  1  0.58620000  0.48300000  0.21238000  1
  C  C439  1  0.58930000  0.84840000  0.39297000  1
  C  C440  1  0.60820000  0.31190000  0.78943000  1
  C  C441  1  0.61530000  0.22730000  0.77602000  1
  C  C442  1  0.62020000  0.64850000  0.80738000  1
  C  C443  1  0.62800000  0.73650000  0.79444000  1
  C  C444  1  0.63830000  0.02860000  0.16144000  1
  C  C445  1  0.64050000  0.94800000  0.02958000  1
  C  C446  1  0.64360000  0.05600000  0.49254000  1
  C  C447  1  0.64390000  0.01670000  0.04691000  1
  C  C448  1  0.64830000  0.06010000  0.51523000  1
  C  C449  1  0.64850000  0.62020000  0.19262000  1
  C  C450  1  0.64860000  0.97730000  0.67432000  1
  C  C451  1  0.64940000  0.96900000  0.69628000  1
  C  C452  1  0.65140000  0.72170000  0.72450000  1
  C  C453  1  0.65160000  0.08930000  0.14297000  1
  C  C454  1  0.65210000  0.56890000  0.11642000  1
  C  C455  1  0.66010000  0.82300000  0.45622000  1
  C  C456  1  0.66720000  0.41740000  0.08616000  1
  C  C457  1  0.67330000  0.48520000  0.22657000  1
  C  C458  1  0.67700000  0.16010000  0.20622000  1
  C  C459  1  0.68230000  0.04170000  0.97865000  1
  C  C460  1  0.68810000  0.39180000  0.71057000  1
  C  C461  1  0.69210000  0.45650000  0.59686000  1
  C  C462  1  0.70770000  0.56890000  0.03944000  1
  C  C463  1  0.72170000  0.65140000  0.27550000  1
  C  C464  1  0.72280000  0.96610000  0.16665000  1
  C  C465  1  0.72730000  0.88470000  0.02602000  1
  C  C466  1  0.73360000  0.02140000  0.05925000  1
  C  C467  1  0.73650000  0.62800000  0.20556000  1
  C  C468  1  0.73890000  0.07760000  0.13009000  1
  C  C469  1  0.74050000  0.56560000  0.10422000  1
  C  C470  1  0.74840000  0.98580000  0.66130000  1
  C  C471  1  0.74870000  0.05780000  0.52727000  1
  C  C472  1  0.75130000  0.55780000  0.22273000  1
  C  C473  1  0.75160000  0.48580000  0.08870000  1
  C  C474  1  0.75950000  0.06560000  0.64578000  1
  C  C475  1  0.76110000  0.57760000  0.61991000  1
  C  C476  1  0.76350000  0.12800000  0.54444000  1
  C  C477  1  0.76640000  0.52140000  0.69075000  1
  C  C478  1  0.77270000  0.38470000  0.72398000  1
  C  C479  1  0.77720000  0.46610000  0.58335000  1
  C  C480  1  0.77830000  0.15140000  0.47450000  1
  C  C481  1  0.79230000  0.06890000  0.71056000  1
  C  C482  1  0.80790000  0.95650000  0.15314000  1
  C  C483  1  0.81190000  0.89180000  0.03943000  1
  C  C484  1  0.81770000  0.54170000  0.77135000  1
  C  C485  1  0.82300000  0.66010000  0.54378000  1
  C  C486  1  0.82670000  0.98520000  0.52343000  1
  C  C487  1  0.83280000  0.91740000  0.66384000  1
  C  C488  1  0.83990000  0.32300000  0.29378000  1
  C  C489  1  0.84790000  0.06890000  0.63358000  1
  C  C490  1  0.84840000  0.58930000  0.60703000  1
  C  C491  1  0.84860000  0.22170000  0.02550000  1
  C  C492  1  0.85060000  0.46900000  0.05372000  1
  C  C493  1  0.85140000  0.47730000  0.07568000  1
  C  C494  1  0.85150000  0.12020000  0.55738000  1
  C  C495  1  0.85170000  0.56010000  0.23477000  1
  C  C496  1  0.85610000  0.51670000  0.70309000  1
  C  C497  1  0.85640000  0.55600000  0.25746000  1
  C  C498  1  0.85950000  0.44800000  0.72042000  1
  C  C499  1  0.86170000  0.52860000  0.58856000  1
  C  C500  1  0.87200000  0.23650000  0.95556000  1
  C  C501  1  0.87980000  0.14850000  0.94262000  1
  C  C502  1  0.88470000  0.72730000  0.97398000  1
  C  C503  1  0.89180000  0.81190000  0.96057000  1
  C  C504  1  0.91070000  0.34840000  0.35703000  1
  C  C505  1  0.91380000  0.98300000  0.53762000  1
  C  C506  1  0.91740000  0.83280000  0.33616000  1
  C  C507  1  0.91790000  0.92690000  0.65074000  1
  C  C508  1  0.92240000  0.26110000  0.36991000  1
  C  C509  1  0.92690000  0.91790000  0.34926000  1
  C  C510  1  0.93110000  0.15210000  0.86642000  1
  C  C511  1  0.93110000  0.20770000  0.78944000  1
  C  C512  1  0.93440000  0.24050000  0.85422000  1
  C  C513  1  0.93990000  0.35170000  0.98477000  1
  C  C514  1  0.94200000  0.54460000  0.00594000  1
  C  C515  1  0.94220000  0.25130000  0.97273000  1
  C  C516  1  0.94220000  0.44370000  0.97359000  1
  C  C517  1  0.94370000  0.55780000  0.22359000  1
  C  C518  1  0.94400000  0.35640000  0.00746000  1
  C  C519  1  0.94400000  0.54240000  0.98349000  1
  C  C520  1  0.94430000  0.47770000  0.08605000  1
  C  C521  1  0.94480000  0.45140000  0.01806000  1
  C  C522  1  0.94550000  0.45680000  0.04227000  1
  C  C523  1  0.94800000  0.64050000  0.97042000  1
  C  C524  1  0.95140000  0.55520000  0.26806000  1
  C  C525  1  0.95340000  0.46300000  0.30359000  1
  C  C526  1  0.95540000  0.44200000  0.75594000  1
  C  C527  1  0.95650000  0.80790000  0.84686000  1
  C  C528  1  0.95680000  0.55450000  0.29227000  1
  C  C529  1  0.95760000  0.44400000  0.73349000  1
  C  C530  1  0.95830000  0.31770000  0.52135000  1
  C  C531  1  0.95860000  0.53300000  0.57592000  1
  C  C532  1  0.96300000  0.54660000  0.55359000  1
  C  C533  1  0.96610000  0.72280000  0.83335000  1
  C  C534  1  0.96700000  0.45860000  0.32592000  1
  C  C535  1  0.96900000  0.64940000  0.30372000  1
  C  C536  1  0.97140000  0.36170000  0.33856000  1
  C  C537  1  0.97730000  0.64860000  0.32568000  1
  C  C538  1  0.97770000  0.55570000  0.33605000  1
  C  C539  1  0.97860000  0.26640000  0.44075000  1
  C  C540  1  0.98300000  0.91380000  0.46238000  1
  C  C541  1  0.98330000  0.35610000  0.45309000  1
  C  C542  1  0.98520000  0.82670000  0.47657000  1
  C  C543  1  0.98580000  0.74840000  0.33870000  1
  I  I544  1  0.04593000  0.83780000  0.59021000  1
  I  I545  1  0.05638000  0.19820000  0.59913000  1
  I  I546  1  0.16220000  0.95407000  0.90979000  1
  I  I547  1  0.19820000  0.05638000  0.40087000  1
  I  I548  1  0.30180000  0.55638000  0.34913000  1
  I  I549  1  0.33780000  0.45407000  0.84021000  1
  I  I550  1  0.44362000  0.69820000  0.15087000  1
  I  I551  1  0.45407000  0.33780000  0.15979000  1
  I  I552  1  0.54593000  0.66220000  0.65979000  1
  I  I553  1  0.55638000  0.30180000  0.65087000  1
  I  I554  1  0.66220000  0.54593000  0.34021000  1
  I  I555  1  0.69820000  0.44362000  0.84913000  1
  I  I556  1  0.80180000  0.94362000  0.90087000  1
  I  I557  1  0.83780000  0.04593000  0.40979000  1
  I  I558  1  0.94362000  0.80180000  0.09913000  1
  I  I559  1  0.95407000  0.16220000  0.09021000  1
  N  N560  1  0.00240000  0.92710000  0.36434000  1
  N  N561  1  0.01390000  0.81690000  0.86505000  1
  N  N562  1  0.03980000  0.18200000  0.44408000  1
  N  N563  1  0.04840000  0.92510000  0.44607000  1
  N  N564  1  0.07290000  0.99760000  0.13566000  1
  N  N565  1  0.07490000  0.95160000  0.05393000  1
  N  N566  1  0.18200000  0.03980000  0.55592000  1
  N  N567  1  0.18310000  0.98610000  0.63495000  1
  N  N568  1  0.31690000  0.48610000  0.11505000  1
  N  N569  1  0.31800000  0.53980000  0.19408000  1
  N  N570  1  0.42510000  0.45160000  0.69607000  1
  N  N571  1  0.42710000  0.49760000  0.61434000  1
  N  N572  1  0.45160000  0.42510000  0.30393000  1
  N  N573  1  0.46020000  0.68200000  0.30592000  1
  N  N574  1  0.48610000  0.31690000  0.88495000  1
  N  N575  1  0.49760000  0.42710000  0.38566000  1
  N  N576  1  0.50240000  0.57290000  0.88566000  1
  N  N577  1  0.51390000  0.68310000  0.38495000  1
  N  N578  1  0.53980000  0.31800000  0.80592000  1
  N  N579  1  0.54840000  0.57490000  0.80393000  1
  N  N580  1  0.57290000  0.50240000  0.11434000  1
  N  N581  1  0.57490000  0.54840000  0.19607000  1
  N  N582  1  0.68200000  0.46020000  0.69408000  1
  N  N583  1  0.68310000  0.51390000  0.61505000  1
  N  N584  1  0.81690000  0.01390000  0.13495000  1
  N  N585  1  0.81800000  0.96020000  0.05592000  1
  N  N586  1  0.92510000  0.04840000  0.55393000  1
  N  N587  1  0.92710000  0.00240000  0.63566000  1
  N  N588  1  0.95160000  0.07490000  0.94607000  1
  N  N589  1  0.96020000  0.81800000  0.94408000  1
  N  N590  1  0.98610000  0.18310000  0.36505000  1
  N  N591  1  0.99760000  0.07290000  0.86434000  1
  O  O592  1  0.03110000  0.25790000  0.79154000  1
  O  O593  1  0.04980000  0.73690000  0.51923000  1
  O  O594  1  0.05540000  0.63110000  0.79215000  1
  O  O595  1  0.05900000  0.35980000  0.51689000  1
  O  O596  1  0.13110000  0.44460000  0.04215000  1
  O  O597  1  0.14020000  0.55900000  0.26689000  1
  O  O598  1  0.23690000  0.45020000  0.76923000  1
  O  O599  1  0.24210000  0.53110000  0.54154000  1
  O  O600  1  0.25790000  0.03110000  0.20846000  1
  O  O601  1  0.26310000  0.95020000  0.98077000  1
  O  O602  1  0.35980000  0.05900000  0.48311000  1
  O  O603  1  0.36890000  0.94460000  0.70785000  1
  O  O604  1  0.44100000  0.85980000  0.23311000  1
  O  O605  1  0.44460000  0.13110000  0.95785000  1
  O  O606  1  0.45020000  0.23690000  0.23077000  1
  O  O607  1  0.46890000  0.75790000  0.95846000  1
  O  O608  1  0.53110000  0.24210000  0.45846000  1
  O  O609  1  0.54980000  0.76310000  0.73077000  1
  O  O610  1  0.55540000  0.86890000  0.45785000  1
  O  O611  1  0.55900000  0.14020000  0.73311000  1
  O  O612  1  0.63110000  0.05540000  0.20785000  1
  O  O613  1  0.64020000  0.94100000  0.98311000  1
  O  O614  1  0.73690000  0.04980000  0.48077000  1
  O  O615  1  0.74210000  0.96890000  0.70846000  1
  O  O616  1  0.75790000  0.46890000  0.04154000  1
  O  O617  1  0.76310000  0.54980000  0.26923000  1
  O  O618  1  0.85980000  0.44100000  0.76689000  1
  O  O619  1  0.86890000  0.55540000  0.54215000  1
  O  O620  1  0.94100000  0.64020000  0.01689000  1
  O  O621  1  0.94460000  0.36890000  0.29215000  1
  O  O622  1  0.95020000  0.26310000  0.01923000  1
  O  O623  1  0.96890000  0.74210000  0.29154000  1
