# generated using pymatgen
data_Zn2SiH16(C7O2)4
_symmetry_space_group_name_H-M   'P 1'
_cell_length_a   22.57560000
_cell_length_b   28.20800000
_cell_length_c   29.63020000
_cell_angle_alpha   90.00000000
_cell_angle_beta   90.00000000
_cell_angle_gamma   90.00000000
_symmetry_Int_Tables_number   1
_chemical_formula_structural   Zn2SiH16(C7O2)4
_chemical_formula_sum   'Zn32 Si16 H256 C448 O128'
_cell_volume   18868.88247233
_cell_formula_units_Z   16
loop_
 _symmetry_equiv_pos_site_id
 _symmetry_equiv_pos_as_xyz
  1  'x, y, z'
loop_
 _atom_site_type_symbol
 _atom_site_label
 _atom_site_symmetry_multiplicity
 _atom_site_fract_x
 _atom_site_fract_y
 _atom_site_fract_z
 _atom_site_occupancy
  Zn  Zn0  1  0.92135000  0.72693000  0.87505000  1
  Zn  Zn1  1  0.92135000  0.22693000  0.62495000  1
  Zn  Zn2  1  0.85714000  0.84198000  0.87360000  1
  Zn  Zn3  1  0.85714000  0.34198000  0.62640000  1
  Zn  Zn4  1  0.85414000  0.86128000  0.37189000  1
  Zn  Zn5  1  0.85414000  0.36128000  0.12811000  1
  Zn  Zn6  1  0.76101000  0.90002000  0.45867000  1
  Zn  Zn7  1  0.76101000  0.40002000  0.04133000  1
  Zn  Zn8  1  0.73899000  0.40002000  0.45867000  1
  Zn  Zn9  1  0.73899000  0.90002000  0.04133000  1
  Zn  Zn10  1  0.64586000  0.36128000  0.37189000  1
  Zn  Zn11  1  0.64586000  0.86128000  0.12811000  1
  Zn  Zn12  1  0.64286000  0.34198000  0.87360000  1
  Zn  Zn13  1  0.64286000  0.84198000  0.62640000  1
  Zn  Zn14  1  0.57865000  0.22693000  0.87505000  1
  Zn  Zn15  1  0.57865000  0.72693000  0.62495000  1
  Zn  Zn16  1  0.42135000  0.27307000  0.37505000  1
  Zn  Zn17  1  0.42135000  0.77307000  0.12495000  1
  Zn  Zn18  1  0.35714000  0.15802000  0.37360000  1
  Zn  Zn19  1  0.35714000  0.65802000  0.12640000  1
  Zn  Zn20  1  0.35414000  0.13872000  0.87189000  1
  Zn  Zn21  1  0.35414000  0.63872000  0.62811000  1
  Zn  Zn22  1  0.26101000  0.09998000  0.95867000  1
  Zn  Zn23  1  0.26101000  0.59998000  0.54133000  1
  Zn  Zn24  1  0.23899000  0.59998000  0.95867000  1
  Zn  Zn25  1  0.23899000  0.09998000  0.54133000  1
  Zn  Zn26  1  0.14586000  0.63872000  0.87189000  1
  Zn  Zn27  1  0.14586000  0.13872000  0.62811000  1
  Zn  Zn28  1  0.14286000  0.65802000  0.37360000  1
  Zn  Zn29  1  0.14286000  0.15802000  0.12640000  1
  Zn  Zn30  1  0.07865000  0.77307000  0.37505000  1
  Zn  Zn31  1  0.07865000  0.27307000  0.12495000  1
  Si  Si32  1  0.93824000  0.14229000  0.87785000  1
  Si  Si33  1  0.93824000  0.64229000  0.62215000  1
  Si  Si34  1  0.93819000  0.16004000  0.37765000  1
  Si  Si35  1  0.93819000  0.66004000  0.12235000  1
  Si  Si36  1  0.56181000  0.66004000  0.37765000  1
  Si  Si37  1  0.56181000  0.16004000  0.12235000  1
  Si  Si38  1  0.56176000  0.64229000  0.87785000  1
  Si  Si39  1  0.56176000  0.14229000  0.62215000  1
  Si  Si40  1  0.43824000  0.85771000  0.37785000  1
  Si  Si41  1  0.43824000  0.35771000  0.12215000  1
  Si  Si42  1  0.43819000  0.83996000  0.87765000  1
  Si  Si43  1  0.43819000  0.33996000  0.62235000  1
  Si  Si44  1  0.06181000  0.33996000  0.87765000  1
  Si  Si45  1  0.06181000  0.83996000  0.62235000  1
  Si  Si46  1  0.06176000  0.35771000  0.37785000  1
  Si  Si47  1  0.06176000  0.85771000  0.12215000  1
  H  H48  1  0.99670000  0.65400000  0.96500000  1
  H  H49  1  0.99670000  0.15400000  0.53500000  1
  H  H50  1  0.99180000  0.75100000  0.25540000  1
  H  H51  1  0.99180000  0.25100000  0.24460000  1
  H  H52  1  0.98970000  0.64910000  0.78240000  1
  H  H53  1  0.98970000  0.14910000  0.71760000  1
  H  H54  1  0.98110000  0.74130000  0.49040000  1
  H  H55  1  0.98110000  0.24130000  0.00960000  1
  H  H56  1  0.97500000  0.39050000  0.82010000  1
  H  H57  1  0.97500000  0.89050000  0.67990000  1
  H  H58  1  0.96670000  0.39630000  0.43330000  1
  H  H59  1  0.96670000  0.89630000  0.06670000  1
  H  H60  1  0.94230000  0.23510000  0.31070000  1
  H  H61  1  0.94230000  0.73510000  0.18930000  1
  H  H62  1  0.93430000  0.25380000  0.41210000  1
  H  H63  1  0.93430000  0.75380000  0.08790000  1
  H  H64  1  0.93330000  0.35040000  0.36280000  1
  H  H65  1  0.93330000  0.85040000  0.13720000  1
  H  H66  1  0.93300000  0.33180000  0.88890000  1
  H  H67  1  0.93300000  0.83180000  0.61110000  1
  H  H68  1  0.93270000  0.22130000  0.94330000  1
  H  H69  1  0.93270000  0.72130000  0.55670000  1
  H  H70  1  0.93150000  0.16110000  0.47600000  1
  H  H71  1  0.93150000  0.66110000  0.02400000  1
  H  H72  1  0.92810000  0.07500000  0.31730000  1
  H  H73  1  0.92810000  0.57500000  0.18270000  1
  H  H74  1  0.92540000  0.14920000  0.77960000  1
  H  H75  1  0.92540000  0.64920000  0.72040000  1
  H  H76  1  0.92520000  0.37460000  0.75370000  1
  H  H77  1  0.92520000  0.87460000  0.74630000  1
  H  H78  1  0.92470000  0.05640000  0.82130000  1
  H  H79  1  0.92470000  0.55640000  0.67870000  1
  H  H80  1  0.91920000  0.87710000  0.99990000  1
  H  H81  1  0.91920000  0.37710000  0.50010000  1
  H  H82  1  0.91160000  0.24200000  0.85520000  1
  H  H83  1  0.91160000  0.74200000  0.64480000  1
  H  H84  1  0.89660000  0.08390000  0.95310000  1
  H  H85  1  0.89660000  0.58390000  0.54690000  1
  H  H86  1  0.88760000  0.97910000  0.83310000  1
  H  H87  1  0.88760000  0.47910000  0.66690000  1
  H  H88  1  0.88690000  0.99940000  0.32570000  1
  H  H89  1  0.88690000  0.49940000  0.17430000  1
  H  H90  1  0.87200000  0.11000000  0.44280000  1
  H  H91  1  0.87200000  0.61000000  0.05720000  1
  H  H92  1  0.87110000  0.35070000  0.30080000  1
  H  H93  1  0.87110000  0.85070000  0.19920000  1
  H  H94  1  0.86660000  0.33860000  0.94830000  1
  H  H95  1  0.86660000  0.83860000  0.55170000  1
  H  H96  1  0.86520000  0.31550000  0.41530000  1
  H  H97  1  0.86520000  0.81550000  0.08470000  1
  H  H98  1  0.85970000  0.00860000  0.96250000  1
  H  H99  1  0.85970000  0.50860000  0.53750000  1
  H  H100  1  0.83080000  0.03440000  0.45120000  1
  H  H101  1  0.83080000  0.53440000  0.04880000  1
  H  H102  1  0.83020000  0.28950000  0.85500000  1
  H  H103  1  0.83020000  0.78950000  0.64500000  1
  H  H104  1  0.81070000  0.16840000  0.35520000  1
  H  H105  1  0.81070000  0.66840000  0.14480000  1
  H  H106  1  0.81030000  0.12950000  0.88270000  1
  H  H107  1  0.81030000  0.62950000  0.61730000  1
  H  H108  1  0.77350000  0.67670000  0.88280000  1
  H  H109  1  0.77350000  0.17670000  0.61720000  1
  H  H110  1  0.75840000  0.73020000  0.35840000  1
  H  H111  1  0.75840000  0.23020000  0.14160000  1
  H  H112  1  0.74160000  0.23020000  0.35840000  1
  H  H113  1  0.74160000  0.73020000  0.14160000  1
  H  H114  1  0.72650000  0.17670000  0.88280000  1
  H  H115  1  0.72650000  0.67670000  0.61720000  1
  H  H116  1  0.68970000  0.62950000  0.88270000  1
  H  H117  1  0.68970000  0.12950000  0.61730000  1
  H  H118  1  0.68930000  0.66840000  0.35520000  1
  H  H119  1  0.68930000  0.16840000  0.14480000  1
  H  H120  1  0.66980000  0.78950000  0.85500000  1
  H  H121  1  0.66980000  0.28950000  0.64500000  1
  H  H122  1  0.66920000  0.53440000  0.45120000  1
  H  H123  1  0.66920000  0.03440000  0.04880000  1
  H  H124  1  0.64030000  0.50860000  0.96250000  1
  H  H125  1  0.64030000  0.00860000  0.53750000  1
  H  H126  1  0.63480000  0.81550000  0.41530000  1
  H  H127  1  0.63480000  0.31550000  0.08470000  1
  H  H128  1  0.63340000  0.83860000  0.94830000  1
  H  H129  1  0.63340000  0.33860000  0.55170000  1
  H  H130  1  0.62890000  0.85070000  0.30080000  1
  H  H131  1  0.62890000  0.35070000  0.19920000  1
  H  H132  1  0.62800000  0.61000000  0.44280000  1
  H  H133  1  0.62800000  0.11000000  0.05720000  1
  H  H134  1  0.61310000  0.49940000  0.32570000  1
  H  H135  1  0.61310000  0.99940000  0.17430000  1
  H  H136  1  0.61240000  0.47910000  0.83310000  1
  H  H137  1  0.61240000  0.97910000  0.66690000  1
  H  H138  1  0.60340000  0.58390000  0.95310000  1
  H  H139  1  0.60340000  0.08390000  0.54690000  1
  H  H140  1  0.58840000  0.74200000  0.85520000  1
  H  H141  1  0.58840000  0.24200000  0.64480000  1
  H  H142  1  0.58080000  0.37710000  0.99990000  1
  H  H143  1  0.58080000  0.87710000  0.50010000  1
  H  H144  1  0.57530000  0.55640000  0.82130000  1
  H  H145  1  0.57530000  0.05640000  0.67870000  1
  H  H146  1  0.57480000  0.87460000  0.75370000  1
  H  H147  1  0.57480000  0.37460000  0.74630000  1
  H  H148  1  0.57460000  0.64920000  0.77960000  1
  H  H149  1  0.57460000  0.14920000  0.72040000  1
  H  H150  1  0.57190000  0.57500000  0.31730000  1
  H  H151  1  0.57190000  0.07500000  0.18270000  1
  H  H152  1  0.56850000  0.66110000  0.47600000  1
  H  H153  1  0.56850000  0.16110000  0.02400000  1
  H  H154  1  0.56730000  0.72130000  0.94330000  1
  H  H155  1  0.56730000  0.22130000  0.55670000  1
  H  H156  1  0.56700000  0.83180000  0.88890000  1
  H  H157  1  0.56700000  0.33180000  0.61110000  1
  H  H158  1  0.56670000  0.85040000  0.36280000  1
  H  H159  1  0.56670000  0.35040000  0.13720000  1
  H  H160  1  0.56570000  0.75380000  0.41210000  1
  H  H161  1  0.56570000  0.25380000  0.08790000  1
  H  H162  1  0.55770000  0.73510000  0.31070000  1
  H  H163  1  0.55770000  0.23510000  0.18930000  1
  H  H164  1  0.53330000  0.89630000  0.43330000  1
  H  H165  1  0.53330000  0.39630000  0.06670000  1
  H  H166  1  0.52500000  0.89050000  0.82010000  1
  H  H167  1  0.52500000  0.39050000  0.67990000  1
  H  H168  1  0.51890000  0.24130000  0.49040000  1
  H  H169  1  0.51890000  0.74130000  0.00960000  1
  H  H170  1  0.51030000  0.14910000  0.78240000  1
  H  H171  1  0.51030000  0.64910000  0.71760000  1
  H  H172  1  0.50820000  0.25100000  0.25540000  1
  H  H173  1  0.50820000  0.75100000  0.24460000  1
  H  H174  1  0.50330000  0.15400000  0.96500000  1
  H  H175  1  0.50330000  0.65400000  0.53500000  1
  H  H176  1  0.49670000  0.34600000  0.46500000  1
  H  H177  1  0.49670000  0.84600000  0.03500000  1
  H  H178  1  0.49180000  0.24900000  0.75540000  1
  H  H179  1  0.49180000  0.74900000  0.74460000  1
  H  H180  1  0.48970000  0.35090000  0.28240000  1
  H  H181  1  0.48970000  0.85090000  0.21760000  1
  H  H182  1  0.48110000  0.25870000  0.99040000  1
  H  H183  1  0.48110000  0.75870000  0.50960000  1
  H  H184  1  0.47500000  0.60950000  0.32010000  1
  H  H185  1  0.47500000  0.10950000  0.17990000  1
  H  H186  1  0.46670000  0.60370000  0.93330000  1
  H  H187  1  0.46670000  0.10370000  0.56670000  1
  H  H188  1  0.44230000  0.76490000  0.81070000  1
  H  H189  1  0.44230000  0.26490000  0.68930000  1
  H  H190  1  0.43430000  0.74620000  0.91210000  1
  H  H191  1  0.43430000  0.24620000  0.58790000  1
  H  H192  1  0.43330000  0.64960000  0.86280000  1
  H  H193  1  0.43330000  0.14960000  0.63720000  1
  H  H194  1  0.43300000  0.66820000  0.38890000  1
  H  H195  1  0.43300000  0.16820000  0.11110000  1
  H  H196  1  0.43270000  0.77870000  0.44330000  1
  H  H197  1  0.43270000  0.27870000  0.05670000  1
  H  H198  1  0.43150000  0.83890000  0.97600000  1
  H  H199  1  0.43150000  0.33890000  0.52400000  1
  H  H200  1  0.42810000  0.92500000  0.81730000  1
  H  H201  1  0.42810000  0.42500000  0.68270000  1
  H  H202  1  0.42540000  0.85080000  0.27960000  1
  H  H203  1  0.42540000  0.35080000  0.22040000  1
  H  H204  1  0.42520000  0.62540000  0.25370000  1
  H  H205  1  0.42520000  0.12540000  0.24630000  1
  H  H206  1  0.42470000  0.94360000  0.32130000  1
  H  H207  1  0.42470000  0.44360000  0.17870000  1
  H  H208  1  0.41920000  0.12290000  0.49990000  1
  H  H209  1  0.41920000  0.62290000  0.00010000  1
  H  H210  1  0.41160000  0.75800000  0.35520000  1
  H  H211  1  0.41160000  0.25800000  0.14480000  1
  H  H212  1  0.39660000  0.91610000  0.45310000  1
  H  H213  1  0.39660000  0.41610000  0.04690000  1
  H  H214  1  0.38760000  0.02090000  0.33310000  1
  H  H215  1  0.38760000  0.52090000  0.16690000  1
  H  H216  1  0.38690000  0.00060000  0.82570000  1
  H  H217  1  0.38690000  0.50060000  0.67430000  1
  H  H218  1  0.37200000  0.89000000  0.94280000  1
  H  H219  1  0.37200000  0.39000000  0.55720000  1
  H  H220  1  0.37110000  0.64930000  0.80080000  1
  H  H221  1  0.37110000  0.14930000  0.69920000  1
  H  H222  1  0.36660000  0.66140000  0.44830000  1
  H  H223  1  0.36660000  0.16140000  0.05170000  1
  H  H224  1  0.36520000  0.68450000  0.91530000  1
  H  H225  1  0.36520000  0.18450000  0.58470000  1
  H  H226  1  0.35970000  0.99140000  0.46250000  1
  H  H227  1  0.35970000  0.49140000  0.03750000  1
  H  H228  1  0.33080000  0.96560000  0.95120000  1
  H  H229  1  0.33080000  0.46560000  0.54880000  1
  H  H230  1  0.33020000  0.71050000  0.35500000  1
  H  H231  1  0.33020000  0.21050000  0.14500000  1
  H  H232  1  0.31070000  0.83160000  0.85520000  1
  H  H233  1  0.31070000  0.33160000  0.64480000  1
  H  H234  1  0.31030000  0.87050000  0.38270000  1
  H  H235  1  0.31030000  0.37050000  0.11730000  1
  H  H236  1  0.27350000  0.32330000  0.38280000  1
  H  H237  1  0.27350000  0.82330000  0.11720000  1
  H  H238  1  0.25840000  0.26980000  0.85840000  1
  H  H239  1  0.25840000  0.76980000  0.64160000  1
  H  H240  1  0.24160000  0.76980000  0.85840000  1
  H  H241  1  0.24160000  0.26980000  0.64160000  1
  H  H242  1  0.22650000  0.82330000  0.38280000  1
  H  H243  1  0.22650000  0.32330000  0.11720000  1
  H  H244  1  0.18970000  0.37050000  0.38270000  1
  H  H245  1  0.18970000  0.87050000  0.11730000  1
  H  H246  1  0.18930000  0.33160000  0.85520000  1
  H  H247  1  0.18930000  0.83160000  0.64480000  1
  H  H248  1  0.16980000  0.21050000  0.35500000  1
  H  H249  1  0.16980000  0.71050000  0.14500000  1
  H  H250  1  0.16920000  0.46560000  0.95120000  1
  H  H251  1  0.16920000  0.96560000  0.54880000  1
  H  H252  1  0.14030000  0.49140000  0.46250000  1
  H  H253  1  0.14030000  0.99140000  0.03750000  1
  H  H254  1  0.13480000  0.18450000  0.91530000  1
  H  H255  1  0.13480000  0.68450000  0.58470000  1
  H  H256  1  0.13340000  0.16140000  0.44830000  1
  H  H257  1  0.13340000  0.66140000  0.05170000  1
  H  H258  1  0.12890000  0.14930000  0.80080000  1
  H  H259  1  0.12890000  0.64930000  0.69920000  1
  H  H260  1  0.12800000  0.39000000  0.94280000  1
  H  H261  1  0.12800000  0.89000000  0.55720000  1
  H  H262  1  0.11310000  0.50060000  0.82570000  1
  H  H263  1  0.11310000  0.00060000  0.67430000  1
  H  H264  1  0.11240000  0.52090000  0.33310000  1
  H  H265  1  0.11240000  0.02090000  0.16690000  1
  H  H266  1  0.10340000  0.41610000  0.45310000  1
  H  H267  1  0.10340000  0.91610000  0.04690000  1
  H  H268  1  0.08840000  0.25800000  0.35520000  1
  H  H269  1  0.08840000  0.75800000  0.14480000  1
  H  H270  1  0.08080000  0.62290000  0.49990000  1
  H  H271  1  0.08080000  0.12290000  0.00010000  1
  H  H272  1  0.07530000  0.44360000  0.32130000  1
  H  H273  1  0.07530000  0.94360000  0.17870000  1
  H  H274  1  0.07480000  0.12540000  0.25370000  1
  H  H275  1  0.07480000  0.62540000  0.24630000  1
  H  H276  1  0.07460000  0.35080000  0.27960000  1
  H  H277  1  0.07460000  0.85080000  0.22040000  1
  H  H278  1  0.07190000  0.42500000  0.81730000  1
  H  H279  1  0.07190000  0.92500000  0.68270000  1
  H  H280  1  0.06850000  0.33890000  0.97600000  1
  H  H281  1  0.06850000  0.83890000  0.52400000  1
  H  H282  1  0.06730000  0.27870000  0.44330000  1
  H  H283  1  0.06730000  0.77870000  0.05670000  1
  H  H284  1  0.06700000  0.16820000  0.38890000  1
  H  H285  1  0.06700000  0.66820000  0.11110000  1
  H  H286  1  0.06670000  0.14960000  0.86280000  1
  H  H287  1  0.06670000  0.64960000  0.63720000  1
  H  H288  1  0.06570000  0.24620000  0.91210000  1
  H  H289  1  0.06570000  0.74620000  0.58790000  1
  H  H290  1  0.05770000  0.26490000  0.81070000  1
  H  H291  1  0.05770000  0.76490000  0.68930000  1
  H  H292  1  0.03330000  0.10370000  0.93330000  1
  H  H293  1  0.03330000  0.60370000  0.56670000  1
  H  H294  1  0.02500000  0.10950000  0.32010000  1
  H  H295  1  0.02500000  0.60950000  0.17990000  1
  H  H296  1  0.01890000  0.75870000  0.99040000  1
  H  H297  1  0.01890000  0.25870000  0.50960000  1
  H  H298  1  0.01030000  0.85090000  0.28240000  1
  H  H299  1  0.01030000  0.35090000  0.21760000  1
  H  H300  1  0.00820000  0.74900000  0.75540000  1
  H  H301  1  0.00820000  0.24900000  0.74460000  1
  H  H302  1  0.00330000  0.84600000  0.46500000  1
  H  H303  1  0.00330000  0.34600000  0.03500000  1
  C  C304  1  0.99800000  0.22153000  0.25951000  1
  C  C305  1  0.99800000  0.72153000  0.24049000  1
  C  C306  1  0.99460000  0.85160000  0.25266000  1
  C  C307  1  0.99460000  0.35160000  0.24734000  1
  C  C308  1  0.99274000  0.16273000  0.42589000  1
  C  C309  1  0.99274000  0.66273000  0.07411000  1
  C  C310  1  0.99156000  0.21315000  0.99401000  1
  C  C311  1  0.99156000  0.71315000  0.50599000  1
  C  C312  1  0.98840000  0.84339000  0.49488000  1
  C  C313  1  0.98840000  0.34339000  0.00512000  1
  C  C314  1  0.98813000  0.14740000  0.82842000  1
  C  C315  1  0.98813000  0.64740000  0.67158000  1
  C  C316  1  0.98220000  0.36145000  0.80473000  1
  C  C317  1  0.98220000  0.86145000  0.69527000  1
  C  C318  1  0.97798000  0.15966000  0.93078000  1
  C  C319  1  0.97798000  0.65966000  0.56922000  1
  C  C320  1  0.97784000  0.36818000  0.44883000  1
  C  C321  1  0.97784000  0.86818000  0.05117000  1
  C  C322  1  0.97767000  0.17128000  0.32325000  1
  C  C323  1  0.97767000  0.67128000  0.17675000  1
  C  C324  1  0.97280000  0.16026000  0.47007000  1
  C  C325  1  0.97280000  0.66026000  0.02993000  1
  C  C326  1  0.96930000  0.21219000  0.29929000  1
  C  C327  1  0.96930000  0.71219000  0.20071000  1
  C  C328  1  0.96693000  0.14844000  0.78462000  1
  C  C329  1  0.96693000  0.64844000  0.71538000  1
  C  C330  1  0.96463000  0.81591000  0.98929000  1
  C  C331  1  0.96463000  0.31591000  0.51071000  1
  C  C332  1  0.96440000  0.81124000  0.75891000  1
  C  C333  1  0.96440000  0.31124000  0.74109000  1
  C  C334  1  0.96301000  0.20124000  0.95461000  1
  C  C335  1  0.96301000  0.70124000  0.54539000  1
  C  C336  1  0.95320000  0.35240000  0.76495000  1
  C  C337  1  0.95320000  0.85240000  0.73505000  1
  C  C338  1  0.94990000  0.35135000  0.33333333  1
  C  C339  1  0.94990000  0.85135000  0.16665000  1
  C  C340  1  0.94914000  0.35694000  0.48838000  1
  C  C341  1  0.94914000  0.85694000  0.01162000  1
  C  C342  1  0.94760000  0.33554000  0.91875000  1
  C  C343  1  0.94760000  0.83554000  0.58125000  1
  C  C344  1  0.93510000  0.80230000  0.80311000  1
  C  C345  1  0.93510000  0.30230000  0.69689000  1
  C  C346  1  0.93492000  0.35258000  0.25369000  1
  C  C347  1  0.93492000  0.85258000  0.24631000  1
  C  C348  1  0.93469000  0.80249000  0.94599000  1
  C  C349  1  0.93469000  0.30249000  0.55401000  1
  C  C350  1  0.92750000  0.34340000  0.99826000  1
  C  C351  1  0.92750000  0.84340000  0.50174000  1
  C  C352  1  0.91320000  0.07923000  0.88541000  1
  C  C353  1  0.91320000  0.57923000  0.61459000  1
  C  C354  1  0.91278000  0.35145000  0.29638000  1
  C  C355  1  0.91278000  0.85145000  0.20362000  1
  C  C356  1  0.91110000  0.04727000  0.85040000  1
  C  C357  1  0.91110000  0.54727000  0.64960000  1
  C  C358  1  0.90840000  0.06674000  0.34446000  1
  C  C359  1  0.90840000  0.56674000  0.15554000  1
  C  C360  1  0.90792000  0.33911000  0.95425000  1
  C  C361  1  0.90792000  0.83911000  0.54575000  1
  C  C362  1  0.90395000  0.09959000  0.37927000  1
  C  C363  1  0.90395000  0.59959000  0.12073000  1
  C  C364  1  0.89520000  0.24900000  0.40120000  1
  C  C365  1  0.89520000  0.74900000  0.09880000  1
  C  C366  1  0.89440000  0.06318000  0.92781000  1
  C  C367  1  0.89440000  0.56318000  0.57219000  1
  C  C368  1  0.89180000  0.85594000  0.28630000  1
  C  C369  1  0.89180000  0.35594000  0.21370000  1
  C  C370  1  0.88910000  0.00111000  0.85730000  1
  C  C371  1  0.88910000  0.50111000  0.64270000  1
  C  C372  1  0.88580000  0.85010000  0.46399000  1
  C  C373  1  0.88580000  0.35010000  0.03601000  1
  C  C374  1  0.88390000  0.02184000  0.34944000  1
  C  C375  1  0.88390000  0.52184000  0.15056000  1
  C  C376  1  0.87900000  0.20529000  0.38338000  1
  C  C377  1  0.87900000  0.70529000  0.11662000  1
  C  C378  1  0.87500000  0.08753000  0.41906000  1
  C  C379  1  0.87500000  0.58753000  0.08094000  1
  C  C380  1  0.87400000  0.22838000  0.86157000  1
  C  C381  1  0.87400000  0.72838000  0.63843000  1
  C  C382  1  0.87270000  0.01829000  0.93350000  1
  C  C383  1  0.87270000  0.51829000  0.56650000  1
  C  C384  1  0.87082000  0.18059000  0.87075000  1
  C  C385  1  0.87082000  0.68059000  0.62925000  1
  C  C386  1  0.86960000  0.98833000  0.89960000  1
  C  C387  1  0.86960000  0.48833000  0.60040000  1
  C  C388  1  0.85490000  0.00979000  0.38923000  1
  C  C389  1  0.85490000  0.50979000  0.11077000  1
  C  C390  1  0.85410000  0.28566000  0.40310000  1
  C  C391  1  0.85410000  0.78566000  0.09690000  1
  C  C392  1  0.85050000  0.04263000  0.42404000  1
  C  C393  1  0.85050000  0.54263000  0.07596000  1
  C  C394  1  0.84680000  0.93720000  0.90420000  1
  C  C395  1  0.84680000  0.43720000  0.59580000  1
  C  C396  1  0.82910000  0.96110000  0.39480000  1
  C  C397  1  0.82910000  0.46110000  0.10520000  1
  C  C398  1  0.82590000  0.25664000  0.86123000  1
  C  C399  1  0.82590000  0.75664000  0.63877000  1
  C  C400  1  0.82170000  0.19828000  0.36740000  1
  C  C401  1  0.82170000  0.69828000  0.13260000  1
  C  C402  1  0.81450000  0.16256000  0.87767000  1
  C  C403  1  0.81450000  0.66256000  0.62233000  1
  C  C404  1  0.79690000  0.27864000  0.38720000  1
  C  C405  1  0.79690000  0.77864000  0.11280000  1
  C  C406  1  0.78460000  0.76813000  0.87034000  1
  C  C407  1  0.78460000  0.26813000  0.62966000  1
  C  C408  1  0.78070000  0.23500000  0.36930000  1
  C  C409  1  0.78070000  0.73500000  0.13070000  1
  C  C410  1  0.77049000  0.23836000  0.86974000  1
  C  C411  1  0.77049000  0.73836000  0.63026000  1
  C  C412  1  0.76440000  0.19028000  0.87759000  1
  C  C413  1  0.76440000  0.69028000  0.62241000  1
  C  C414  1  0.75400000  0.31900000  0.39020000  1
  C  C415  1  0.75400000  0.81900000  0.10980000  1
  C  C416  1  0.74600000  0.81900000  0.39020000  1
  C  C417  1  0.74600000  0.31900000  0.10980000  1
  C  C418  1  0.73560000  0.69028000  0.87759000  1
  C  C419  1  0.73560000  0.19028000  0.62241000  1
  C  C420  1  0.72951000  0.73836000  0.86974000  1
  C  C421  1  0.72951000  0.23836000  0.63026000  1
  C  C422  1  0.71930000  0.73500000  0.36930000  1
  C  C423  1  0.71930000  0.23500000  0.13070000  1
  C  C424  1  0.71540000  0.26813000  0.87034000  1
  C  C425  1  0.71540000  0.76813000  0.62966000  1
  C  C426  1  0.70310000  0.77864000  0.38720000  1
  C  C427  1  0.70310000  0.27864000  0.11280000  1
  C  C428  1  0.68550000  0.66256000  0.87767000  1
  C  C429  1  0.68550000  0.16256000  0.62233000  1
  C  C430  1  0.67830000  0.69828000  0.36740000  1
  C  C431  1  0.67830000  0.19828000  0.13260000  1
  C  C432  1  0.67410000  0.75664000  0.86123000  1
  C  C433  1  0.67410000  0.25664000  0.63877000  1
  C  C434  1  0.67090000  0.46110000  0.39480000  1
  C  C435  1  0.67090000  0.96110000  0.10520000  1
  C  C436  1  0.65320000  0.43720000  0.90420000  1
  C  C437  1  0.65320000  0.93720000  0.59580000  1
  C  C438  1  0.64950000  0.54263000  0.42404000  1
  C  C439  1  0.64950000  0.04263000  0.07596000  1
  C  C440  1  0.64590000  0.78566000  0.40310000  1
  C  C441  1  0.64590000  0.28566000  0.09690000  1
  C  C442  1  0.64510000  0.50979000  0.38923000  1
  C  C443  1  0.64510000  0.00979000  0.11077000  1
  C  C444  1  0.63040000  0.48833000  0.89960000  1
  C  C445  1  0.63040000  0.98833000  0.60040000  1
  C  C446  1  0.62918000  0.68059000  0.87075000  1
  C  C447  1  0.62918000  0.18059000  0.62925000  1
  C  C448  1  0.62730000  0.51829000  0.93350000  1
  C  C449  1  0.62730000  0.01829000  0.56650000  1
  C  C450  1  0.62600000  0.72838000  0.86157000  1
  C  C451  1  0.62600000  0.22838000  0.63843000  1
  C  C452  1  0.62500000  0.58753000  0.41906000  1
  C  C453  1  0.62500000  0.08753000  0.08094000  1
  C  C454  1  0.62100000  0.70529000  0.38338000  1
  C  C455  1  0.62100000  0.20529000  0.11662000  1
  C  C456  1  0.61610000  0.52184000  0.34944000  1
  C  C457  1  0.61610000  0.02184000  0.15056000  1
  C  C458  1  0.61420000  0.35010000  0.46399000  1
  C  C459  1  0.61420000  0.85010000  0.03601000  1
  C  C460  1  0.61090000  0.50111000  0.85730000  1
  C  C461  1  0.61090000  0.00111000  0.64270000  1
  C  C462  1  0.60820000  0.35594000  0.28630000  1
  C  C463  1  0.60820000  0.85594000  0.21370000  1
  C  C464  1  0.60560000  0.56318000  0.92781000  1
  C  C465  1  0.60560000  0.06318000  0.57219000  1
  C  C466  1  0.60480000  0.74900000  0.40120000  1
  C  C467  1  0.60480000  0.24900000  0.09880000  1
  C  C468  1  0.59605000  0.59959000  0.37927000  1
  C  C469  1  0.59605000  0.09959000  0.12073000  1
  C  C470  1  0.59208000  0.83911000  0.95425000  1
  C  C471  1  0.59208000  0.33911000  0.54575000  1
  C  C472  1  0.59160000  0.56674000  0.34446000  1
  C  C473  1  0.59160000  0.06674000  0.15554000  1
  C  C474  1  0.58890000  0.54727000  0.85040000  1
  C  C475  1  0.58890000  0.04727000  0.64960000  1
  C  C476  1  0.58722000  0.85145000  0.29638000  1
  C  C477  1  0.58722000  0.35145000  0.20362000  1
  C  C478  1  0.58680000  0.57923000  0.88541000  1
  C  C479  1  0.58680000  0.07923000  0.61459000  1
  C  C480  1  0.57250000  0.84340000  0.99826000  1
  C  C481  1  0.57250000  0.34340000  0.50174000  1
  C  C482  1  0.56531000  0.30249000  0.94599000  1
  C  C483  1  0.56531000  0.80249000  0.55401000  1
  C  C484  1  0.56508000  0.85258000  0.25369000  1
  C  C485  1  0.56508000  0.35258000  0.24631000  1
  C  C486  1  0.56490000  0.30230000  0.80311000  1
  C  C487  1  0.56490000  0.80230000  0.69689000  1
  C  C488  1  0.55240000  0.83554000  0.91875000  1
  C  C489  1  0.55240000  0.33554000  0.58125000  1
  C  C490  1  0.55086000  0.85694000  0.48838000  1
  C  C491  1  0.55086000  0.35694000  0.01162000  1
  C  C492  1  0.55010000  0.85135000  0.33333333  1
  C  C493  1  0.55010000  0.35135000  0.16665000  1
  C  C494  1  0.54680000  0.85240000  0.76495000  1
  C  C495  1  0.54680000  0.35240000  0.73505000  1
  C  C496  1  0.53699000  0.70124000  0.95461000  1
  C  C497  1  0.53699000  0.20124000  0.54539000  1
  C  C498  1  0.53560000  0.31124000  0.75891000  1
  C  C499  1  0.53560000  0.81124000  0.74109000  1
  C  C500  1  0.53537000  0.31591000  0.98929000  1
  C  C501  1  0.53537000  0.81591000  0.51071000  1
  C  C502  1  0.53307000  0.64844000  0.78462000  1
  C  C503  1  0.53307000  0.14844000  0.71538000  1
  C  C504  1  0.53070000  0.71219000  0.29929000  1
  C  C505  1  0.53070000  0.21219000  0.20071000  1
  C  C506  1  0.52720000  0.66026000  0.47007000  1
  C  C507  1  0.52720000  0.16026000  0.02993000  1
  C  C508  1  0.52233000  0.67128000  0.32325000  1
  C  C509  1  0.52233000  0.17128000  0.17675000  1
  C  C510  1  0.52216000  0.86818000  0.44883000  1
  C  C511  1  0.52216000  0.36818000  0.05117000  1
  C  C512  1  0.52202000  0.65966000  0.93078000  1
  C  C513  1  0.52202000  0.15966000  0.56922000  1
  C  C514  1  0.51780000  0.86145000  0.80473000  1
  C  C515  1  0.51780000  0.36145000  0.69527000  1
  C  C516  1  0.51187000  0.64740000  0.82842000  1
  C  C517  1  0.51187000  0.14740000  0.67158000  1
  C  C518  1  0.51160000  0.34339000  0.49488000  1
  C  C519  1  0.51160000  0.84339000  0.00512000  1
  C  C520  1  0.50844000  0.71315000  0.99401000  1
  C  C521  1  0.50844000  0.21315000  0.50599000  1
  C  C522  1  0.50726000  0.66273000  0.42589000  1
  C  C523  1  0.50726000  0.16273000  0.07411000  1
  C  C524  1  0.50540000  0.35160000  0.25266000  1
  C  C525  1  0.50540000  0.85160000  0.24734000  1
  C  C526  1  0.50200000  0.72153000  0.25951000  1
  C  C527  1  0.50200000  0.22153000  0.24049000  1
  C  C528  1  0.49800000  0.77847000  0.75951000  1
  C  C529  1  0.49800000  0.27847000  0.74049000  1
  C  C530  1  0.49460000  0.14840000  0.75266000  1
  C  C531  1  0.49460000  0.64840000  0.74734000  1
  C  C532  1  0.49274000  0.83727000  0.92589000  1
  C  C533  1  0.49274000  0.33727000  0.57411000  1
  C  C534  1  0.49156000  0.78685000  0.49401000  1
  C  C535  1  0.49156000  0.28685000  0.00599000  1
  C  C536  1  0.48840000  0.15661000  0.99488000  1
  C  C537  1  0.48840000  0.65661000  0.50512000  1
  C  C538  1  0.48813000  0.85260000  0.32842000  1
  C  C539  1  0.48813000  0.35260000  0.17158000  1
  C  C540  1  0.48220000  0.63855000  0.30473000  1
  C  C541  1  0.48220000  0.13855000  0.19527000  1
  C  C542  1  0.47798000  0.84034000  0.43078000  1
  C  C543  1  0.47798000  0.34034000  0.06922000  1
  C  C544  1  0.47784000  0.63182000  0.94883000  1
  C  C545  1  0.47784000  0.13182000  0.55117000  1
  C  C546  1  0.47767000  0.82872000  0.82325000  1
  C  C547  1  0.47767000  0.32872000  0.67675000  1
  C  C548  1  0.47280000  0.83974000  0.97007000  1
  C  C549  1  0.47280000  0.33974000  0.52993000  1
  C  C550  1  0.46930000  0.78781000  0.79929000  1
  C  C551  1  0.46930000  0.28781000  0.70071000  1
  C  C552  1  0.46693000  0.85156000  0.28462000  1
  C  C553  1  0.46693000  0.35156000  0.21538000  1
  C  C554  1  0.46463000  0.18409000  0.48929000  1
  C  C555  1  0.46463000  0.68409000  0.01071000  1
  C  C556  1  0.46440000  0.18876000  0.25891000  1
  C  C557  1  0.46440000  0.68876000  0.24109000  1
  C  C558  1  0.46301000  0.79876000  0.45461000  1
  C  C559  1  0.46301000  0.29876000  0.04539000  1
  C  C560  1  0.45320000  0.64760000  0.26495000  1
  C  C561  1  0.45320000  0.14760000  0.23505000  1
  C  C562  1  0.44990000  0.64865000  0.83335000  1
  C  C563  1  0.44990000  0.14865000  0.66666667  1
  C  C564  1  0.44914000  0.64306000  0.98838000  1
  C  C565  1  0.44914000  0.14306000  0.51162000  1
  C  C566  1  0.44760000  0.66446000  0.41875000  1
  C  C567  1  0.44760000  0.16446000  0.08125000  1
  C  C568  1  0.43510000  0.19770000  0.30311000  1
  C  C569  1  0.43510000  0.69770000  0.19689000  1
  C  C570  1  0.43492000  0.64742000  0.75369000  1
  C  C571  1  0.43492000  0.14742000  0.74631000  1
  C  C572  1  0.43469000  0.19751000  0.44599000  1
  C  C573  1  0.43469000  0.69751000  0.05401000  1
  C  C574  1  0.42750000  0.65660000  0.49826000  1
  C  C575  1  0.42750000  0.15660000  0.00174000  1
  C  C576  1  0.41320000  0.92077000  0.38541000  1
  C  C577  1  0.41320000  0.42077000  0.11459000  1
  C  C578  1  0.41278000  0.64855000  0.79638000  1
  C  C579  1  0.41278000  0.14855000  0.70362000  1
  C  C580  1  0.41110000  0.95273000  0.35040000  1
  C  C581  1  0.41110000  0.45273000  0.14960000  1
  C  C582  1  0.40840000  0.93326000  0.84446000  1
  C  C583  1  0.40840000  0.43326000  0.65554000  1
  C  C584  1  0.40792000  0.66089000  0.45425000  1
  C  C585  1  0.40792000  0.16089000  0.04575000  1
  C  C586  1  0.40395000  0.90041000  0.87927000  1
  C  C587  1  0.40395000  0.40041000  0.62073000  1
  C  C588  1  0.39520000  0.75100000  0.90120000  1
  C  C589  1  0.39520000  0.25100000  0.59880000  1
  C  C590  1  0.39440000  0.93682000  0.42781000  1
  C  C591  1  0.39440000  0.43682000  0.07219000  1
  C  C592  1  0.39180000  0.14406000  0.78630000  1
  C  C593  1  0.39180000  0.64406000  0.71370000  1
  C  C594  1  0.38910000  0.99889000  0.35730000  1
  C  C595  1  0.38910000  0.49889000  0.14270000  1
  C  C596  1  0.38580000  0.14990000  0.96399000  1
  C  C597  1  0.38580000  0.64990000  0.53601000  1
  C  C598  1  0.38390000  0.97816000  0.84944000  1
  C  C599  1  0.38390000  0.47816000  0.65056000  1
  C  C600  1  0.37900000  0.79471000  0.88338000  1
  C  C601  1  0.37900000  0.29471000  0.61662000  1
  C  C602  1  0.37500000  0.91247000  0.91906000  1
  C  C603  1  0.37500000  0.41247000  0.58094000  1
  C  C604  1  0.37400000  0.77162000  0.36157000  1
  C  C605  1  0.37400000  0.27162000  0.13843000  1
  C  C606  1  0.37270000  0.98171000  0.43350000  1
  C  C607  1  0.37270000  0.48171000  0.06650000  1
  C  C608  1  0.37082000  0.81941000  0.37075000  1
  C  C609  1  0.37082000  0.31941000  0.12925000  1
  C  C610  1  0.36960000  0.01167000  0.39960000  1
  C  C611  1  0.36960000  0.51167000  0.10040000  1
  C  C612  1  0.35490000  0.99021000  0.88923000  1
  C  C613  1  0.35490000  0.49021000  0.61077000  1
  C  C614  1  0.35410000  0.71434000  0.90310000  1
  C  C615  1  0.35410000  0.21434000  0.59690000  1
  C  C616  1  0.35050000  0.95737000  0.92404000  1
  C  C617  1  0.35050000  0.45737000  0.57596000  1
  C  C618  1  0.34680000  0.06280000  0.40420000  1
  C  C619  1  0.34680000  0.56280000  0.09580000  1
  C  C620  1  0.32910000  0.03890000  0.89480000  1
  C  C621  1  0.32910000  0.53890000  0.60520000  1
  C  C622  1  0.32590000  0.74336000  0.36123000  1
  C  C623  1  0.32590000  0.24336000  0.13877000  1
  C  C624  1  0.32170000  0.80172000  0.86740000  1
  C  C625  1  0.32170000  0.30172000  0.63260000  1
  C  C626  1  0.31450000  0.83744000  0.37767000  1
  C  C627  1  0.31450000  0.33744000  0.12233000  1
  C  C628  1  0.29690000  0.72136000  0.88720000  1
  C  C629  1  0.29690000  0.22136000  0.61280000  1
  C  C630  1  0.28460000  0.23187000  0.37034000  1
  C  C631  1  0.28460000  0.73187000  0.12966000  1
  C  C632  1  0.28070000  0.76500000  0.86930000  1
  C  C633  1  0.28070000  0.26500000  0.63070000  1
  C  C634  1  0.27049000  0.76164000  0.36974000  1
  C  C635  1  0.27049000  0.26164000  0.13026000  1
  C  C636  1  0.26440000  0.80972000  0.37759000  1
  C  C637  1  0.26440000  0.30972000  0.12241000  1
  C  C638  1  0.25400000  0.68100000  0.89020000  1
  C  C639  1  0.25400000  0.18100000  0.60980000  1
  C  C640  1  0.24600000  0.18100000  0.89020000  1
  C  C641  1  0.24600000  0.68100000  0.60980000  1
  C  C642  1  0.23560000  0.30972000  0.37759000  1
  C  C643  1  0.23560000  0.80972000  0.12241000  1
  C  C644  1  0.22951000  0.26164000  0.36974000  1
  C  C645  1  0.22951000  0.76164000  0.13026000  1
  C  C646  1  0.21930000  0.26500000  0.86930000  1
  C  C647  1  0.21930000  0.76500000  0.63070000  1
  C  C648  1  0.21540000  0.73187000  0.37034000  1
  C  C649  1  0.21540000  0.23187000  0.12966000  1
  C  C650  1  0.20310000  0.22136000  0.88720000  1
  C  C651  1  0.20310000  0.72136000  0.61280000  1
  C  C652  1  0.18550000  0.33744000  0.37767000  1
  C  C653  1  0.18550000  0.83744000  0.12233000  1
  C  C654  1  0.17830000  0.30172000  0.86740000  1
  C  C655  1  0.17830000  0.80172000  0.63260000  1
  C  C656  1  0.17410000  0.24336000  0.36123000  1
  C  C657  1  0.17410000  0.74336000  0.13877000  1
  C  C658  1  0.17090000  0.53890000  0.89480000  1
  C  C659  1  0.17090000  0.03890000  0.60520000  1
  C  C660  1  0.15320000  0.56280000  0.40420000  1
  C  C661  1  0.15320000  0.06280000  0.09580000  1
  C  C662  1  0.14950000  0.45737000  0.92404000  1
  C  C663  1  0.14950000  0.95737000  0.57596000  1
  C  C664  1  0.14590000  0.21434000  0.90310000  1
  C  C665  1  0.14590000  0.71434000  0.59690000  1
  C  C666  1  0.14510000  0.49021000  0.88923000  1
  C  C667  1  0.14510000  0.99021000  0.61077000  1
  C  C668  1  0.13040000  0.51167000  0.39960000  1
  C  C669  1  0.13040000  0.01167000  0.10040000  1
  C  C670  1  0.12918000  0.31941000  0.37075000  1
  C  C671  1  0.12918000  0.81941000  0.12925000  1
  C  C672  1  0.12730000  0.48171000  0.43350000  1
  C  C673  1  0.12730000  0.98171000  0.06650000  1
  C  C674  1  0.12600000  0.27162000  0.36157000  1
  C  C675  1  0.12600000  0.77162000  0.13843000  1
  C  C676  1  0.12500000  0.41247000  0.91906000  1
  C  C677  1  0.12500000  0.91247000  0.58094000  1
  C  C678  1  0.12100000  0.29471000  0.88338000  1
  C  C679  1  0.12100000  0.79471000  0.61662000  1
  C  C680  1  0.11610000  0.47816000  0.84944000  1
  C  C681  1  0.11610000  0.97816000  0.65056000  1
  C  C682  1  0.11420000  0.64990000  0.96399000  1
  C  C683  1  0.11420000  0.14990000  0.53601000  1
  C  C684  1  0.11090000  0.49889000  0.35730000  1
  C  C685  1  0.11090000  0.99889000  0.14270000  1
  C  C686  1  0.10820000  0.64406000  0.78630000  1
  C  C687  1  0.10820000  0.14406000  0.71370000  1
  C  C688  1  0.10560000  0.43682000  0.42781000  1
  C  C689  1  0.10560000  0.93682000  0.07219000  1
  C  C690  1  0.10480000  0.25100000  0.90120000  1
  C  C691  1  0.10480000  0.75100000  0.59880000  1
  C  C692  1  0.09605000  0.40041000  0.87927000  1
  C  C693  1  0.09605000  0.90041000  0.62073000  1
  C  C694  1  0.09208000  0.16089000  0.45425000  1
  C  C695  1  0.09208000  0.66089000  0.04575000  1
  C  C696  1  0.09160000  0.43326000  0.84446000  1
  C  C697  1  0.09160000  0.93326000  0.65554000  1
  C  C698  1  0.08890000  0.45273000  0.35040000  1
  C  C699  1  0.08890000  0.95273000  0.14960000  1
  C  C700  1  0.08722000  0.14855000  0.79638000  1
  C  C701  1  0.08722000  0.64855000  0.70362000  1
  C  C702  1  0.08680000  0.42077000  0.38541000  1
  C  C703  1  0.08680000  0.92077000  0.11459000  1
  C  C704  1  0.07250000  0.15660000  0.49826000  1
  C  C705  1  0.07250000  0.65660000  0.00174000  1
  C  C706  1  0.06531000  0.69751000  0.44599000  1
  C  C707  1  0.06531000  0.19751000  0.05401000  1
  C  C708  1  0.06508000  0.14742000  0.75369000  1
  C  C709  1  0.06508000  0.64742000  0.74631000  1
  C  C710  1  0.06490000  0.69770000  0.30311000  1
  C  C711  1  0.06490000  0.19770000  0.19689000  1
  C  C712  1  0.05240000  0.16446000  0.41875000  1
  C  C713  1  0.05240000  0.66446000  0.08125000  1
  C  C714  1  0.05086000  0.14306000  0.98838000  1
  C  C715  1  0.05086000  0.64306000  0.51162000  1
  C  C716  1  0.05010000  0.14865000  0.83335000  1
  C  C717  1  0.05010000  0.64865000  0.66666667  1
  C  C718  1  0.04680000  0.14760000  0.26495000  1
  C  C719  1  0.04680000  0.64760000  0.23505000  1
  C  C720  1  0.03699000  0.29876000  0.45461000  1
  C  C721  1  0.03699000  0.79876000  0.04539000  1
  C  C722  1  0.03560000  0.68876000  0.25891000  1
  C  C723  1  0.03560000  0.18876000  0.24109000  1
  C  C724  1  0.03537000  0.68409000  0.48929000  1
  C  C725  1  0.03537000  0.18409000  0.01071000  1
  C  C726  1  0.03307000  0.35156000  0.28462000  1
  C  C727  1  0.03307000  0.85156000  0.21538000  1
  C  C728  1  0.03070000  0.28781000  0.79929000  1
  C  C729  1  0.03070000  0.78781000  0.70071000  1
  C  C730  1  0.02720000  0.33974000  0.97007000  1
  C  C731  1  0.02720000  0.83974000  0.52993000  1
  C  C732  1  0.02233000  0.32872000  0.82325000  1
  C  C733  1  0.02233000  0.82872000  0.67675000  1
  C  C734  1  0.02216000  0.13182000  0.94883000  1
  C  C735  1  0.02216000  0.63182000  0.55117000  1
  C  C736  1  0.02202000  0.34034000  0.43078000  1
  C  C737  1  0.02202000  0.84034000  0.06922000  1
  C  C738  1  0.01780000  0.13855000  0.30473000  1
  C  C739  1  0.01780000  0.63855000  0.19527000  1
  C  C740  1  0.01187000  0.35260000  0.32842000  1
  C  C741  1  0.01187000  0.85260000  0.17158000  1
  C  C742  1  0.01160000  0.65661000  0.99488000  1
  C  C743  1  0.01160000  0.15661000  0.50512000  1
  C  C744  1  0.00844000  0.28685000  0.49401000  1
  C  C745  1  0.00844000  0.78685000  0.00599000  1
  C  C746  1  0.00726000  0.33727000  0.92589000  1
  C  C747  1  0.00726000  0.83727000  0.57411000  1
  C  C748  1  0.00540000  0.64840000  0.75266000  1
  C  C749  1  0.00540000  0.14840000  0.74734000  1
  C  C750  1  0.00200000  0.27847000  0.75951000  1
  C  C751  1  0.00200000  0.77847000  0.74049000  1
  O  O752  1  0.94382000  0.76305000  0.82128000  1
  O  O753  1  0.94382000  0.26305000  0.67872000  1
  O  O754  1  0.94319000  0.76199000  0.93037000  1
  O  O755  1  0.94319000  0.26199000  0.56963000  1
  O  O756  1  0.91499000  0.84932000  0.32514000  1
  O  O757  1  0.91499000  0.34932000  0.17486000  1
  O  O758  1  0.90575000  0.85046000  0.42441000  1
  O  O759  1  0.90575000  0.35046000  0.07559000  1
  O  O760  1  0.90396000  0.83446000  0.81858000  1
  O  O761  1  0.90396000  0.33446000  0.68142000  1
  O  O762  1  0.90143000  0.83399000  0.92913000  1
  O  O763  1  0.90143000  0.33399000  0.57087000  1
  O  O764  1  0.85020000  0.91074000  0.87107000  1
  O  O765  1  0.85020000  0.41074000  0.62893000  1
  O  O766  1  0.84130000  0.93070000  0.36520000  1
  O  O767  1  0.84130000  0.43070000  0.13480000  1
  O  O768  1  0.84003000  0.86509000  0.28089000  1
  O  O769  1  0.84003000  0.36509000  0.21911000  1
  O  O770  1  0.83270000  0.74846000  0.87402000  1
  O  O771  1  0.83270000  0.24846000  0.62598000  1
  O  O772  1  0.83222000  0.85413000  0.47243000  1
  O  O773  1  0.83222000  0.35413000  0.02757000  1
  O  O774  1  0.83160000  0.92610000  0.94520000  1
  O  O775  1  0.83160000  0.42610000  0.55480000  1
  O  O776  1  0.80860000  0.95180000  0.43360000  1
  O  O777  1  0.80860000  0.45180000  0.06640000  1
  O  O778  1  0.79460000  0.81300000  0.37030000  1
  O  O779  1  0.79460000  0.31300000  0.12970000  1
  O  O780  1  0.77809000  0.81297000  0.86900000  1
  O  O781  1  0.77809000  0.31297000  0.63100000  1
  O  O782  1  0.77030000  0.35648000  0.41000000  1
  O  O783  1  0.77030000  0.85648000  0.09000000  1
  O  O784  1  0.72970000  0.85648000  0.41000000  1
  O  O785  1  0.72970000  0.35648000  0.09000000  1
  O  O786  1  0.72191000  0.31297000  0.86900000  1
  O  O787  1  0.72191000  0.81297000  0.63100000  1
  O  O788  1  0.70540000  0.31300000  0.37030000  1
  O  O789  1  0.70540000  0.81300000  0.12970000  1
  O  O790  1  0.69140000  0.45180000  0.43360000  1
  O  O791  1  0.69140000  0.95180000  0.06640000  1
  O  O792  1  0.66840000  0.42610000  0.94520000  1
  O  O793  1  0.66840000  0.92610000  0.55480000  1
  O  O794  1  0.66778000  0.35413000  0.47243000  1
  O  O795  1  0.66778000  0.85413000  0.02757000  1
  O  O796  1  0.66730000  0.24846000  0.87402000  1
  O  O797  1  0.66730000  0.74846000  0.62598000  1
  O  O798  1  0.65997000  0.36509000  0.28089000  1
  O  O799  1  0.65997000  0.86509000  0.21911000  1
  O  O800  1  0.65870000  0.43070000  0.36520000  1
  O  O801  1  0.65870000  0.93070000  0.13480000  1
  O  O802  1  0.64980000  0.41074000  0.87107000  1
  O  O803  1  0.64980000  0.91074000  0.62893000  1
  O  O804  1  0.59857000  0.33399000  0.92913000  1
  O  O805  1  0.59857000  0.83399000  0.57087000  1
  O  O806  1  0.59604000  0.33446000  0.81858000  1
  O  O807  1  0.59604000  0.83446000  0.68142000  1
  O  O808  1  0.59425000  0.35046000  0.42441000  1
  O  O809  1  0.59425000  0.85046000  0.07559000  1
  O  O810  1  0.58501000  0.34932000  0.32514000  1
  O  O811  1  0.58501000  0.84932000  0.17486000  1
  O  O812  1  0.55681000  0.26199000  0.93037000  1
  O  O813  1  0.55681000  0.76199000  0.56963000  1
  O  O814  1  0.55618000  0.26305000  0.82128000  1
  O  O815  1  0.55618000  0.76305000  0.67872000  1
  O  O816  1  0.44382000  0.23695000  0.32128000  1
  O  O817  1  0.44382000  0.73695000  0.17872000  1
  O  O818  1  0.44319000  0.23801000  0.43037000  1
  O  O819  1  0.44319000  0.73801000  0.06963000  1
  O  O820  1  0.41499000  0.15068000  0.82514000  1
  O  O821  1  0.41499000  0.65068000  0.67486000  1
  O  O822  1  0.40575000  0.14954000  0.92441000  1
  O  O823  1  0.40575000  0.64954000  0.57559000  1
  O  O824  1  0.40396000  0.16554000  0.31858000  1
  O  O825  1  0.40396000  0.66554000  0.18142000  1
  O  O826  1  0.40143000  0.16601000  0.42913000  1
  O  O827  1  0.40143000  0.66601000  0.07087000  1
  O  O828  1  0.35020000  0.08926000  0.37107000  1
  O  O829  1  0.35020000  0.58926000  0.12893000  1
  O  O830  1  0.34130000  0.06930000  0.86520000  1
  O  O831  1  0.34130000  0.56930000  0.63480000  1
  O  O832  1  0.34003000  0.13491000  0.78089000  1
  O  O833  1  0.34003000  0.63491000  0.71911000  1
  O  O834  1  0.33270000  0.25154000  0.37402000  1
  O  O835  1  0.33270000  0.75154000  0.12598000  1
  O  O836  1  0.33222000  0.14587000  0.97243000  1
  O  O837  1  0.33222000  0.64587000  0.52757000  1
  O  O838  1  0.33160000  0.07390000  0.44520000  1
  O  O839  1  0.33160000  0.57390000  0.05480000  1
  O  O840  1  0.30860000  0.04820000  0.93360000  1
  O  O841  1  0.30860000  0.54820000  0.56640000  1
  O  O842  1  0.29460000  0.18700000  0.87030000  1
  O  O843  1  0.29460000  0.68700000  0.62970000  1
  O  O844  1  0.27809000  0.18703000  0.36900000  1
  O  O845  1  0.27809000  0.68703000  0.13100000  1
  O  O846  1  0.27030000  0.64352000  0.91000000  1
  O  O847  1  0.27030000  0.14352000  0.59000000  1
  O  O848  1  0.22970000  0.14352000  0.91000000  1
  O  O849  1  0.22970000  0.64352000  0.59000000  1
  O  O850  1  0.22191000  0.68703000  0.36900000  1
  O  O851  1  0.22191000  0.18703000  0.13100000  1
  O  O852  1  0.20540000  0.68700000  0.87030000  1
  O  O853  1  0.20540000  0.18700000  0.62970000  1
  O  O854  1  0.19140000  0.54820000  0.93360000  1
  O  O855  1  0.19140000  0.04820000  0.56640000  1
  O  O856  1  0.16840000  0.57390000  0.44520000  1
  O  O857  1  0.16840000  0.07390000  0.05480000  1
  O  O858  1  0.16778000  0.64587000  0.97243000  1
  O  O859  1  0.16778000  0.14587000  0.52757000  1
  O  O860  1  0.16730000  0.75154000  0.37402000  1
  O  O861  1  0.16730000  0.25154000  0.12598000  1
  O  O862  1  0.15997000  0.63491000  0.78089000  1
  O  O863  1  0.15997000  0.13491000  0.71911000  1
  O  O864  1  0.15870000  0.56930000  0.86520000  1
  O  O865  1  0.15870000  0.06930000  0.63480000  1
  O  O866  1  0.14980000  0.58926000  0.37107000  1
  O  O867  1  0.14980000  0.08926000  0.12893000  1
  O  O868  1  0.09857000  0.66601000  0.42913000  1
  O  O869  1  0.09857000  0.16601000  0.07087000  1
  O  O870  1  0.09604000  0.66554000  0.31858000  1
  O  O871  1  0.09604000  0.16554000  0.18142000  1
  O  O872  1  0.09425000  0.64954000  0.92441000  1
  O  O873  1  0.09425000  0.14954000  0.57559000  1
  O  O874  1  0.08501000  0.65068000  0.82514000  1
  O  O875  1  0.08501000  0.15068000  0.67486000  1
  O  O876  1  0.05681000  0.73801000  0.43037000  1
  O  O877  1  0.05681000  0.23801000  0.06963000  1
  O  O878  1  0.05618000  0.73695000  0.32128000  1
  O  O879  1  0.05618000  0.23695000  0.17872000  1
