# generated using pymatgen
data_In6H48C85O28
_symmetry_space_group_name_H-M   'P 1'
_cell_length_a   22.04660000
_cell_length_b   22.04660000
_cell_length_c   36.77200000
_cell_angle_alpha   90.00000000
_cell_angle_beta   90.00000000
_cell_angle_gamma   90.00000000
_symmetry_Int_Tables_number   1
_chemical_formula_structural   In6H48C85O28
_chemical_formula_sum   'In24 H192 C340 O112'
_cell_volume   17873.12516140
_cell_formula_units_Z   4
loop_
 _symmetry_equiv_pos_site_id
 _symmetry_equiv_pos_as_xyz
  1  'x, y, z'
loop_
 _atom_site_type_symbol
 _atom_site_label
 _atom_site_symmetry_multiplicity
 _atom_site_fract_x
 _atom_site_fract_y
 _atom_site_fract_z
 _atom_site_occupancy
  In  In0  1  0.00059000  0.71320000  0.84925000  1
  In  In1  1  0.00425000  0.34861000  0.26064000  1
  In  In2  1  0.00955000  0.80780000  0.77216000  1
  In  In3  1  0.15139000  0.50425000  0.01064000  1
  In  In4  1  0.19220000  0.99045000  0.72784000  1
  In  In5  1  0.21320000  0.49941000  0.09925000  1
  In  In6  1  0.28680000  0.99941000  0.65075000  1
  In  In7  1  0.30780000  0.49045000  0.02216000  1
  In  In8  1  0.34861000  0.00425000  0.73936000  1
  In  In9  1  0.49045000  0.30780000  0.97784000  1
  In  In10  1  0.49575000  0.84861000  0.48936000  1
  In  In11  1  0.49941000  0.21320000  0.90075000  1
  In  In12  1  0.50059000  0.78680000  0.40075000  1
  In  In13  1  0.50425000  0.15139000  0.98936000  1
  In  In14  1  0.50955000  0.69220000  0.47784000  1
  In  In15  1  0.65139000  0.99575000  0.23936000  1
  In  In16  1  0.69220000  0.50955000  0.52216000  1
  In  In17  1  0.71320000  0.00059000  0.15075000  1
  In  In18  1  0.78680000  0.50059000  0.59925000  1
  In  In19  1  0.80780000  0.00955000  0.22784000  1
  In  In20  1  0.84861000  0.49575000  0.51064000  1
  In  In21  1  0.99045000  0.19220000  0.27216000  1
  In  In22  1  0.99575000  0.65139000  0.76064000  1
  In  In23  1  0.99941000  0.28680000  0.34925000  1
  H  H24  1  0.00430000  0.69000000  0.65080000  1
  H  H25  1  0.00990000  0.20430000  0.66800000  1
  H  H26  1  0.00990000  0.79960000  0.65730000  1
  H  H27  1  0.02220000  0.73780000  0.54630000  1
  H  H28  1  0.02860000  0.65570000  0.03780000  1
  H  H29  1  0.03160000  0.26580000  0.55550000  1
  H  H30  1  0.03570000  0.72030000  0.15530000  1
  H  H31  1  0.04170000  0.33990000  0.03050000  1
  H  H32  1  0.06010000  0.38420000  0.13590000  1
  H  H33  1  0.07200000  0.13030000  0.69080000  1
  H  H34  1  0.07260000  0.87570000  0.67580000  1
  H  H35  1  0.09750000  0.64180000  0.13730000  1
  H  H36  1  0.10440000  0.21240000  0.57920000  1
  H  H37  1  0.11090000  0.15410000  0.17610000  1
  H  H38  1  0.11580000  0.56010000  0.88590000  1
  H  H39  1  0.11970000  0.77510000  0.57080000  1
  H  H40  1  0.12430000  0.92740000  0.82420000  1
  H  H41  1  0.13030000  0.07200000  0.30920000  1
  H  H42  1  0.13510000  0.64800000  0.67640000  1
  H  H43  1  0.14000000  0.16900000  0.39890000  1
  H  H44  1  0.14070000  0.33333333  0.18000000  1
  H  H45  1  0.14180000  0.40250000  0.38730000  1
  H  H46  1  0.14750000  0.17900000  0.87180000  1
  H  H47  1  0.14800000  0.36490000  0.92640000  1
  H  H48  1  0.14900000  0.27970000  0.88880000  1
  H  H49  1  0.15340000  0.81750000  0.90720000  1
  H  H50  1  0.15410000  0.11090000  0.82390000  1
  H  H51  1  0.15570000  0.47140000  0.28780000  1
  H  H52  1  0.16010000  0.54170000  0.78050000  1
  H  H53  1  0.16670000  0.64070000  0.93000000  1
  H  H54  1  0.16900000  0.14000000  0.60110000  1
  H  H55  1  0.17460000  0.70730000  0.88190000  1
  H  H56  1  0.17900000  0.14750000  0.12820000  1
  H  H57  1  0.18250000  0.84660000  0.59280000  1
  H  H58  1  0.19000000  0.49570000  0.90080000  1
  H  H59  1  0.19100000  0.72760000  0.82340000  1
  H  H60  1  0.19160000  0.80790000  0.71800000  1
  H  H61  1  0.19210000  0.80840000  0.78200000  1
  H  H62  1  0.20040000  0.99010000  0.84270000  1
  H  H63  1  0.20430000  0.00990000  0.33200000  1
  H  H64  1  0.20730000  0.32540000  0.13190000  1
  H  H65  1  0.21240000  0.10440000  0.42080000  1
  H  H66  1  0.22030000  0.46430000  0.40530000  1
  H  H67  1  0.22030000  0.64900000  0.63880000  1
  H  H68  1  0.22490000  0.88030000  0.92920000  1
  H  H69  1  0.22760000  0.30900000  0.07340000  1
  H  H70  1  0.23420000  0.53160000  0.30550000  1
  H  H71  1  0.23780000  0.47780000  0.79630000  1
  H  H72  1  0.26220000  0.97780000  0.95370000  1
  H  H73  1  0.26580000  0.03160000  0.44450000  1
  H  H74  1  0.27240000  0.80900000  0.67660000  1
  H  H75  1  0.27510000  0.38030000  0.82080000  1
  H  H76  1  0.27970000  0.14900000  0.11120000  1
  H  H77  1  0.27970000  0.96430000  0.34470000  1
  H  H78  1  0.28760000  0.60440000  0.32920000  1
  H  H79  1  0.29270000  0.82540000  0.61810000  1
  H  H80  1  0.29570000  0.50990000  0.41800000  1
  H  H81  1  0.29960000  0.49010000  0.90730000  1
  H  H82  1  0.30790000  0.30840000  0.96800000  1
  H  H83  1  0.30840000  0.30790000  0.03200000  1
  H  H84  1  0.30900000  0.22760000  0.92660000  1
  H  H85  1  0.31000000  0.99570000  0.84920000  1
  H  H86  1  0.31750000  0.34660000  0.15720000  1
  H  H87  1  0.32100000  0.64750000  0.62180000  1
  H  H88  1  0.32540000  0.20730000  0.86810000  1
  H  H89  1  0.33100000  0.64000000  0.14890000  1
  H  H90  1  0.33333333  0.14070000  0.82000000  1
  H  H91  1  0.33990000  0.04170000  0.96950000  1
  H  H92  1  0.34430000  0.97140000  0.46220000  1
  H  H93  1  0.34590000  0.61090000  0.92610000  1
  H  H94  1  0.34660000  0.31750000  0.84280000  1
  H  H95  1  0.35100000  0.77970000  0.86120000  1
  H  H96  1  0.35200000  0.86490000  0.82360000  1
  H  H97  1  0.35250000  0.67900000  0.87820000  1
  H  H98  1  0.35820000  0.90250000  0.36270000  1
  H  H99  1  0.35930000  0.83330000  0.57000000  1
  H  H100  1  0.36000000  0.66900000  0.35110000  1
  H  H101  1  0.36490000  0.14800000  0.07360000  1
  H  H102  1  0.36970000  0.57200000  0.44080000  1
  H  H103  1  0.37570000  0.42740000  0.92580000  1
  H  H104  1  0.38030000  0.27510000  0.17920000  1
  H  H105  1  0.38420000  0.06010000  0.86410000  1
  H  H106  1  0.38910000  0.65410000  0.57390000  1
  H  H107  1  0.39560000  0.71240000  0.17080000  1
  H  H108  1  0.40250000  0.14180000  0.61270000  1
  H  H109  1  0.42740000  0.37570000  0.07420000  1
  H  H110  1  0.42800000  0.63030000  0.05920000  1
  H  H111  1  0.43990000  0.88420000  0.61410000  1
  H  H112  1  0.45830000  0.83990000  0.71950000  1
  H  H113  1  0.46430000  0.22030000  0.59470000  1
  H  H114  1  0.46840000  0.76580000  0.19450000  1
  H  H115  1  0.47140000  0.15570000  0.71220000  1
  H  H116  1  0.47780000  0.23780000  0.20370000  1
  H  H117  1  0.49010000  0.29960000  0.09270000  1
  H  H118  1  0.49010000  0.70430000  0.08200000  1
  H  H119  1  0.49570000  0.19000000  0.09920000  1
  H  H120  1  0.50430000  0.81000000  0.59920000  1
  H  H121  1  0.50990000  0.29570000  0.58200000  1
  H  H122  1  0.50990000  0.70040000  0.59270000  1
  H  H123  1  0.52220000  0.76220000  0.70370000  1
  H  H124  1  0.52860000  0.84430000  0.21220000  1
  H  H125  1  0.53160000  0.23420000  0.69450000  1
  H  H126  1  0.53570000  0.77970000  0.09470000  1
  H  H127  1  0.54170000  0.16010000  0.21950000  1
  H  H128  1  0.56010000  0.11580000  0.11410000  1
  H  H129  1  0.57200000  0.36970000  0.55920000  1
  H  H130  1  0.57260000  0.62430000  0.57420000  1
  H  H131  1  0.59750000  0.85820000  0.11270000  1
  H  H132  1  0.60440000  0.28760000  0.67080000  1
  H  H133  1  0.61090000  0.34590000  0.07390000  1
  H  H134  1  0.61580000  0.93990000  0.36410000  1
  H  H135  1  0.61970000  0.72490000  0.67920000  1
  H  H136  1  0.62430000  0.57260000  0.42580000  1
  H  H137  1  0.63030000  0.42800000  0.94080000  1
  H  H138  1  0.63510000  0.85200000  0.57360000  1
  H  H139  1  0.64000000  0.33100000  0.85110000  1
  H  H140  1  0.64070000  0.16670000  0.07000000  1
  H  H141  1  0.64180000  0.09750000  0.86270000  1
  H  H142  1  0.64750000  0.32100000  0.37820000  1
  H  H143  1  0.64800000  0.13510000  0.32360000  1
  H  H144  1  0.64900000  0.22030000  0.36120000  1
  H  H145  1  0.65340000  0.68250000  0.34280000  1
  H  H146  1  0.65410000  0.38910000  0.42610000  1
  H  H147  1  0.65570000  0.02860000  0.96220000  1
  H  H148  1  0.66010000  0.95830000  0.46950000  1
  H  H149  1  0.66666667  0.85930000  0.32000000  1
  H  H150  1  0.66900000  0.36000000  0.64890000  1
  H  H151  1  0.67460000  0.79270000  0.36810000  1
  H  H152  1  0.67900000  0.35250000  0.12180000  1
  H  H153  1  0.68250000  0.65340000  0.65720000  1
  H  H154  1  0.69000000  0.00430000  0.34920000  1
  H  H155  1  0.69100000  0.77240000  0.42660000  1
  H  H156  1  0.69160000  0.69210000  0.53200000  1
  H  H157  1  0.69210000  0.69160000  0.46800000  1
  H  H158  1  0.70040000  0.50990000  0.40730000  1
  H  H159  1  0.70430000  0.49010000  0.91800000  1
  H  H160  1  0.70730000  0.17460000  0.11810000  1
  H  H161  1  0.71240000  0.39560000  0.82920000  1
  H  H162  1  0.72030000  0.03570000  0.84470000  1
  H  H163  1  0.72030000  0.85100000  0.61120000  1
  H  H164  1  0.72490000  0.61970000  0.32080000  1
  H  H165  1  0.72760000  0.19100000  0.17660000  1
  H  H166  1  0.73420000  0.96840000  0.94450000  1
  H  H167  1  0.73780000  0.02220000  0.45370000  1
  H  H168  1  0.76220000  0.52220000  0.29630000  1
  H  H169  1  0.76580000  0.46840000  0.80550000  1
  H  H170  1  0.77240000  0.69100000  0.57340000  1
  H  H171  1  0.77510000  0.11970000  0.42920000  1
  H  H172  1  0.77970000  0.35100000  0.13880000  1
  H  H173  1  0.77970000  0.53570000  0.90530000  1
  H  H174  1  0.78760000  0.89560000  0.92080000  1
  H  H175  1  0.79270000  0.67460000  0.63190000  1
  H  H176  1  0.79570000  0.99010000  0.83200000  1
  H  H177  1  0.79960000  0.00990000  0.34270000  1
  H  H178  1  0.80790000  0.19160000  0.28200000  1
  H  H179  1  0.80840000  0.19210000  0.21800000  1
  H  H180  1  0.80900000  0.27240000  0.32340000  1
  H  H181  1  0.81000000  0.50430000  0.40080000  1
  H  H182  1  0.81750000  0.15340000  0.09280000  1
  H  H183  1  0.82100000  0.85250000  0.62820000  1
  H  H184  1  0.82540000  0.29270000  0.38190000  1
  H  H185  1  0.83100000  0.86000000  0.10110000  1
  H  H186  1  0.83330000  0.35930000  0.43000000  1
  H  H187  1  0.83990000  0.45830000  0.28050000  1
  H  H188  1  0.84430000  0.52860000  0.78780000  1
  H  H189  1  0.84590000  0.88910000  0.32390000  1
  H  H190  1  0.84660000  0.18250000  0.40720000  1
  H  H191  1  0.85100000  0.72030000  0.38880000  1
  H  H192  1  0.85200000  0.63510000  0.42640000  1
  H  H193  1  0.85250000  0.82100000  0.37180000  1
  H  H194  1  0.85820000  0.59750000  0.88730000  1
  H  H195  1  0.85930000  0.66666667  0.68000000  1
  H  H196  1  0.86000000  0.83100000  0.89890000  1
  H  H197  1  0.86490000  0.35200000  0.17640000  1
  H  H198  1  0.86970000  0.92800000  0.80920000  1
  H  H199  1  0.87570000  0.07260000  0.32420000  1
  H  H200  1  0.88030000  0.22490000  0.07080000  1
  H  H201  1  0.88420000  0.43990000  0.38590000  1
  H  H202  1  0.88910000  0.84590000  0.67610000  1
  H  H203  1  0.89560000  0.78760000  0.07920000  1
  H  H204  1  0.90250000  0.35820000  0.63730000  1
  H  H205  1  0.92740000  0.12430000  0.17580000  1
  H  H206  1  0.92800000  0.86970000  0.19080000  1
  H  H207  1  0.93990000  0.61580000  0.63590000  1
  H  H208  1  0.95830000  0.66010000  0.53050000  1
  H  H209  1  0.96430000  0.27970000  0.65530000  1
  H  H210  1  0.96840000  0.73420000  0.05550000  1
  H  H211  1  0.97140000  0.34430000  0.53780000  1
  H  H212  1  0.97780000  0.26220000  0.04630000  1
  H  H213  1  0.99010000  0.20040000  0.15730000  1
  H  H214  1  0.99010000  0.79570000  0.16800000  1
  H  H215  1  0.99570000  0.31000000  0.15080000  1
  C  C216  1  0.00510000  0.71350000  0.56420000  1
  C  C217  1  0.00620000  0.31510000  0.12650000  1
  C  C218  1  0.00760000  0.28580000  0.57250000  1
  C  C219  1  0.01000000  0.26870000  0.60940000  1
  C  C220  1  0.01890000  0.72370000  0.60100000  1
  C  C221  1  0.02980000  0.66880000  0.06180000  1
  C  C222  1  0.03250000  0.70580000  0.13160000  1
  C  C223  1  0.03360000  0.33240000  0.05490000  1
  C  C224  1  0.04350000  0.19280000  0.65430000  1
  C  C225  1  0.04430000  0.35910000  0.11790000  1
  C  C226  1  0.04480000  0.80850000  0.64410000  1
  C  C227  1  0.05230000  0.22030000  0.62230000  1
  C  C228  1  0.05970000  0.77470000  0.61190000  1
  C  C229  1  0.06080000  0.36770000  0.08130000  1
  C  C230  1  0.06950000  0.64160000  0.08570000  1
  C  C231  1  0.07110000  0.65980000  0.12080000  1
  C  C232  1  0.07580000  0.25200000  0.21490000  1
  C  C233  1  0.08110000  0.14790000  0.66850000  1
  C  C234  1  0.08180000  0.17060000  0.33570000  1
  C  C235  1  0.08270000  0.85360000  0.65510000  1
  C  C236  1  0.08360000  0.60320000  0.82100000  1
  C  C237  1  0.08530000  0.91470000  0.75000000  1
  C  C238  1  0.08760000  0.82370000  0.84670000  1
  C  C239  1  0.09320000  0.38770000  0.32410000  1
  C  C240  1  0.09840000  0.19780000  0.60270000  1
  C  C241  1  0.09840000  0.73070000  0.72410000  1
  C  C242  1  0.10320000  0.41640000  0.07100000  1
  C  C243  1  0.11070000  0.79340000  0.59300000  1
  C  C244  1  0.11230000  0.59320000  0.07410000  1
  C  C245  1  0.12010000  0.24470000  0.18380000  1
  C  C246  1  0.12940000  0.13180000  0.35040000  1
  C  C247  1  0.13080000  0.18860000  0.16780000  1
  C  C248  1  0.13180000  0.12940000  0.64960000  1
  C  C249  1  0.13230000  0.56080000  0.83130000  1
  C  C250  1  0.13240000  0.86600000  0.86260000  1
  C  C251  1  0.13400000  0.86760000  0.63740000  1
  C  C252  1  0.13760000  0.15350000  0.61600000  1
  C  C253  1  0.14090000  0.54430000  0.86790000  1
  C  C254  1  0.14160000  0.43050000  0.33570000  1
  C  C255  1  0.14640000  0.91730000  0.84490000  1
  C  C256  1  0.14750000  0.83690000  0.60560000  1
  C  C257  1  0.14790000  0.08110000  0.33150000  1
  C  C258  1  0.14870000  0.29550000  0.16990000  1
  C  C259  1  0.15340000  0.72890000  0.70040000  1
  C  C260  1  0.15350000  0.13760000  0.38400000  1
  C  C261  1  0.15980000  0.42890000  0.37080000  1
  C  C262  1  0.16190000  0.68060000  0.67680000  1
  C  C263  1  0.16310000  0.85250000  0.89440000  1
  C  C264  1  0.16760000  0.53360000  0.80490000  1
  C  C265  1  0.16880000  0.47020000  0.31180000  1
  C  C266  1  0.17060000  0.08180000  0.66430000  1
  C  C267  1  0.17170000  0.18480000  0.13910000  1
  C  C268  1  0.17630000  0.91240000  0.65330000  1
  C  C269  1  0.18060000  0.33810000  0.92680000  1
  C  C270  1  0.18240000  0.28770000  0.90350000  1
  C  C271  1  0.18480000  0.17170000  0.86090000  1
  C  C272  1  0.18490000  0.50620000  0.87650000  1
  C  C273  1  0.18860000  0.13080000  0.83220000  1
  C  C274  1  0.18880000  0.29080000  0.14130000  1
  C  C275  1  0.19150000  0.95520000  0.85590000  1
  C  C276  1  0.19280000  0.04350000  0.34570000  1
  C  C277  1  0.19570000  0.77670000  0.70110000  1
  C  C278  1  0.19780000  0.09840000  0.39730000  1
  C  C279  1  0.20130000  0.23550000  0.12690000  1
  C  C280  1  0.20450000  0.64870000  0.91990000  1
  C  C281  1  0.20580000  0.46750000  0.38160000  1
  C  C282  1  0.20660000  0.88930000  0.90700000  1
  C  C283  1  0.20920000  0.68880000  0.89130000  1
  C  C284  1  0.21230000  0.68240000  0.65350000  1
  C  C285  1  0.21350000  0.49490000  0.81420000  1
  C  C286  1  0.21420000  0.50760000  0.32250000  1
  C  C287  1  0.22030000  0.05230000  0.37770000  1
  C  C288  1  0.22260000  0.75550000  0.82380000  1
  C  C289  1  0.22330000  0.80430000  0.79890000  1
  C  C290  1  0.22370000  0.48110000  0.85100000  1
  C  C291  1  0.22530000  0.94030000  0.88810000  1
  C  C292  1  0.22890000  0.34660000  0.95040000  1
  C  C293  1  0.23070000  0.40160000  0.97410000  1
  C  C294  1  0.23130000  0.51000000  0.35940000  1
  C  C295  1  0.23170000  0.24940000  0.90160000  1
  C  C296  1  0.23550000  0.20130000  0.87310000  1
  C  C297  1  0.24450000  0.77740000  0.67620000  1
  C  C298  1  0.24470000  0.12010000  0.81620000  1
  C  C299  1  0.24800000  0.57580000  0.96490000  1
  C  C300  1  0.24940000  0.23170000  0.09840000  1
  C  C301  1  0.25060000  0.73170000  0.65160000  1
  C  C302  1  0.25200000  0.07580000  0.78510000  1
  C  C303  1  0.25530000  0.62010000  0.93380000  1
  C  C304  1  0.25550000  0.27740000  0.07380000  1
  C  C305  1  0.26450000  0.70130000  0.87690000  1
  C  C306  1  0.26830000  0.74940000  0.84840000  1
  C  C307  1  0.26870000  0.01000000  0.39060000  1
  C  C308  1  0.26930000  0.90160000  0.77590000  1
  C  C309  1  0.27110000  0.84660000  0.79960000  1
  C  C310  1  0.27470000  0.44030000  0.86190000  1
  C  C311  1  0.27630000  0.98110000  0.89900000  1
  C  C312  1  0.27670000  0.30430000  0.95110000  1
  C  C313  1  0.27740000  0.25550000  0.92620000  1
  C  C314  1  0.27970000  0.55230000  0.37230000  1
  C  C315  1  0.28580000  0.00760000  0.42750000  1
  C  C316  1  0.28650000  0.99490000  0.93580000  1
  C  C317  1  0.28770000  0.18240000  0.09650000  1
  C  C318  1  0.29080000  0.18880000  0.85870000  1
  C  C319  1  0.29340000  0.38930000  0.84300000  1
  C  C320  1  0.29420000  0.96750000  0.36840000  1
  C  C321  1  0.29550000  0.14870000  0.83010000  1
  C  C322  1  0.29870000  0.73550000  0.62310000  1
  C  C323  1  0.30220000  0.59840000  0.35270000  1
  C  C324  1  0.30430000  0.27670000  0.04890000  1
  C  C325  1  0.30720000  0.54350000  0.40430000  1
  C  C326  1  0.30850000  0.45520000  0.89410000  1
  C  C327  1  0.31120000  0.79080000  0.60870000  1
  C  C328  1  0.31140000  0.63080000  0.91780000  1
  C  C329  1  0.31510000  0.00620000  0.87350000  1
  C  C330  1  0.31520000  0.67170000  0.88910000  1
  C  C331  1  0.31760000  0.78770000  0.84650000  1
  C  C332  1  0.31940000  0.83810000  0.82320000  1
  C  C333  1  0.32370000  0.41240000  0.09670000  1
  C  C334  1  0.32830000  0.68480000  0.61090000  1
  C  C335  1  0.32940000  0.58180000  0.08570000  1
  C  C336  1  0.33120000  0.97020000  0.43820000  1
  C  C337  1  0.33240000  0.03360000  0.94510000  1
  C  C338  1  0.33690000  0.35250000  0.85560000  1
  C  C339  1  0.33810000  0.18060000  0.07320000  1
  C  C340  1  0.34020000  0.92890000  0.37920000  1
  C  C341  1  0.34650000  0.63760000  0.36600000  1
  C  C342  1  0.34660000  0.22890000  0.04960000  1
  C  C343  1  0.35130000  0.79550000  0.58010000  1
  C  C344  1  0.35210000  0.58110000  0.41850000  1
  C  C345  1  0.35250000  0.33690000  0.14440000  1
  C  C346  1  0.35360000  0.41730000  0.90510000  1
  C  C347  1  0.35840000  0.93050000  0.41430000  1
  C  C348  1  0.35910000  0.04430000  0.88210000  1
  C  C349  1  0.36240000  0.65350000  0.13400000  1
  C  C350  1  0.36600000  0.36760000  0.11260000  1
  C  C351  1  0.36760000  0.36600000  0.88740000  1
  C  C352  1  0.36770000  0.06080000  0.91870000  1
  C  C353  1  0.36820000  0.62940000  0.10040000  1
  C  C354  1  0.36920000  0.68860000  0.58220000  1
  C  C355  1  0.37060000  0.63180000  0.39960000  1
  C  C356  1  0.37990000  0.74470000  0.56620000  1
  C  C357  1  0.38770000  0.09320000  0.67590000  1
  C  C358  1  0.38930000  0.29340000  0.15700000  1
  C  C359  1  0.39680000  0.91640000  0.67900000  1
  C  C360  1  0.40160000  0.23070000  0.02590000  1
  C  C361  1  0.40160000  0.69780000  0.14730000  1
  C  C362  1  0.40680000  0.88770000  0.42590000  1
  C  C363  1  0.41240000  0.32370000  0.90330000  1
  C  C364  1  0.41470000  0.41470000  0.00000000  1
  C  C365  1  0.41640000  0.10320000  0.92900000  1
  C  C366  1  0.41730000  0.35360000  0.09490000  1
  C  C367  1  0.41820000  0.67060000  0.41430000  1
  C  C368  1  0.41890000  0.64790000  0.08150000  1
  C  C369  1  0.42420000  0.75200000  0.53510000  1
  C  C370  1  0.42890000  0.15980000  0.62920000  1
  C  C371  1  0.43050000  0.14160000  0.66430000  1
  C  C372  1  0.43920000  0.86770000  0.66870000  1
  C  C373  1  0.44030000  0.27470000  0.13810000  1
  C  C374  1  0.44770000  0.72030000  0.12770000  1
  C  C375  1  0.45520000  0.30850000  0.10590000  1
  C  C376  1  0.45570000  0.85910000  0.63210000  1
  C  C377  1  0.45650000  0.69280000  0.09570000  1
  C  C378  1  0.46640000  0.83240000  0.69510000  1
  C  C379  1  0.46750000  0.20580000  0.61840000  1
  C  C380  1  0.47020000  0.16880000  0.68820000  1
  C  C381  1  0.48110000  0.22370000  0.14900000  1
  C  C382  1  0.49000000  0.76870000  0.14060000  1
  C  C383  1  0.49240000  0.78580000  0.17750000  1
  C  C384  1  0.49380000  0.81510000  0.62350000  1
  C  C385  1  0.49490000  0.21350000  0.18580000  1
  C  C386  1  0.50510000  0.78650000  0.68580000  1
  C  C387  1  0.50620000  0.18490000  0.12350000  1
  C  C388  1  0.50760000  0.21420000  0.67750000  1
  C  C389  1  0.51000000  0.23130000  0.64060000  1
  C  C390  1  0.51890000  0.77630000  0.64900000  1
  C  C391  1  0.52980000  0.83120000  0.18820000  1
  C  C392  1  0.53250000  0.79420000  0.11840000  1
  C  C393  1  0.53360000  0.16760000  0.19510000  1
  C  C394  1  0.54350000  0.30720000  0.59570000  1
  C  C395  1  0.54430000  0.14090000  0.13210000  1
  C  C396  1  0.54480000  0.69150000  0.60590000  1
  C  C397  1  0.55230000  0.27970000  0.62770000  1
  C  C398  1  0.55970000  0.72530000  0.63810000  1
  C  C399  1  0.56080000  0.13230000  0.16870000  1
  C  C400  1  0.56950000  0.85840000  0.16430000  1
  C  C401  1  0.57110000  0.84020000  0.12920000  1
  C  C402  1  0.57580000  0.24800000  0.03510000  1
  C  C403  1  0.58110000  0.35210000  0.58150000  1
  C  C404  1  0.58180000  0.32940000  0.91430000  1
  C  C405  1  0.58270000  0.64640000  0.59490000  1
  C  C406  1  0.58360000  0.89680000  0.42900000  1
  C  C407  1  0.58530000  0.58530000  0.50000000  1
  C  C408  1  0.58760000  0.67630000  0.40330000  1
  C  C409  1  0.59320000  0.11230000  0.92590000  1
  C  C410  1  0.59840000  0.30220000  0.64730000  1
  C  C411  1  0.59840000  0.76930000  0.52590000  1
  C  C412  1  0.60320000  0.08360000  0.17900000  1
  C  C413  1  0.61070000  0.70660000  0.65700000  1
  C  C414  1  0.61230000  0.90680000  0.17590000  1
  C  C415  1  0.62010000  0.25530000  0.06620000  1
  C  C416  1  0.62940000  0.36820000  0.89960000  1
  C  C417  1  0.63080000  0.31140000  0.08220000  1
  C  C418  1  0.63180000  0.37060000  0.60040000  1
  C  C419  1  0.63230000  0.93920000  0.41870000  1
  C  C420  1  0.63240000  0.63400000  0.38740000  1
  C  C421  1  0.63400000  0.63240000  0.61260000  1
  C  C422  1  0.63760000  0.34650000  0.63400000  1
  C  C423  1  0.64090000  0.95570000  0.38210000  1
  C  C424  1  0.64160000  0.06950000  0.91430000  1
  C  C425  1  0.64640000  0.58270000  0.40510000  1
  C  C426  1  0.64750000  0.66310000  0.64440000  1
  C  C427  1  0.64790000  0.41890000  0.91850000  1
  C  C428  1  0.64870000  0.20450000  0.08010000  1
  C  C429  1  0.65340000  0.77110000  0.54960000  1
  C  C430  1  0.65350000  0.36240000  0.86600000  1
  C  C431  1  0.65980000  0.07110000  0.87920000  1
  C  C432  1  0.66190000  0.81940000  0.57320000  1
  C  C433  1  0.66310000  0.64750000  0.35560000  1
  C  C434  1  0.66760000  0.96640000  0.44510000  1
  C  C435  1  0.66880000  0.02980000  0.93820000  1
  C  C436  1  0.67060000  0.41820000  0.58570000  1
  C  C437  1  0.67170000  0.31520000  0.11090000  1
  C  C438  1  0.67630000  0.58760000  0.59670000  1
  C  C439  1  0.68060000  0.16190000  0.32320000  1
  C  C440  1  0.68240000  0.21230000  0.34650000  1
  C  C441  1  0.68480000  0.32830000  0.38910000  1
  C  C442  1  0.68490000  0.99380000  0.37350000  1
  C  C443  1  0.68860000  0.36920000  0.41780000  1
  C  C444  1  0.68880000  0.20920000  0.10870000  1
  C  C445  1  0.69150000  0.54480000  0.39410000  1
  C  C446  1  0.69280000  0.45650000  0.90430000  1
  C  C447  1  0.69570000  0.72330000  0.54890000  1
  C  C448  1  0.69780000  0.40160000  0.85270000  1
  C  C449  1  0.70130000  0.26450000  0.12310000  1
  C  C450  1  0.70450000  0.85130000  0.33010000  1
  C  C451  1  0.70580000  0.03250000  0.86840000  1
  C  C452  1  0.70660000  0.61070000  0.34300000  1
  C  C453  1  0.70920000  0.81120000  0.35870000  1
  C  C454  1  0.71230000  0.81760000  0.59650000  1
  C  C455  1  0.71350000  0.00510000  0.43580000  1
  C  C456  1  0.71420000  0.99240000  0.92750000  1
  C  C457  1  0.72030000  0.44770000  0.87230000  1
  C  C458  1  0.72260000  0.74450000  0.42620000  1
  C  C459  1  0.72330000  0.69570000  0.45110000  1
  C  C460  1  0.72370000  0.01890000  0.39900000  1
  C  C461  1  0.72530000  0.55970000  0.36190000  1
  C  C462  1  0.72890000  0.15340000  0.29960000  1
  C  C463  1  0.73070000  0.09840000  0.27590000  1
  C  C464  1  0.73130000  0.99000000  0.89060000  1
  C  C465  1  0.73170000  0.25060000  0.34840000  1
  C  C466  1  0.73550000  0.29870000  0.37690000  1
  C  C467  1  0.74450000  0.72260000  0.57380000  1
  C  C468  1  0.74470000  0.37990000  0.43380000  1
  C  C469  1  0.74800000  0.92420000  0.28510000  1
  C  C470  1  0.74940000  0.26830000  0.15160000  1
  C  C471  1  0.75060000  0.76830000  0.59840000  1
  C  C472  1  0.75200000  0.42420000  0.46490000  1
  C  C473  1  0.75530000  0.87990000  0.31620000  1
  C  C474  1  0.75550000  0.22260000  0.17620000  1
  C  C475  1  0.76450000  0.79870000  0.37310000  1
  C  C476  1  0.76830000  0.75060000  0.40160000  1
  C  C477  1  0.76870000  0.49000000  0.85940000  1
  C  C478  1  0.76930000  0.59840000  0.47410000  1
  C  C479  1  0.77110000  0.65340000  0.45040000  1
  C  C480  1  0.77470000  0.05970000  0.38810000  1
  C  C481  1  0.77630000  0.51890000  0.35100000  1
  C  C482  1  0.77670000  0.19570000  0.29890000  1
  C  C483  1  0.77740000  0.24450000  0.32380000  1
  C  C484  1  0.77970000  0.94770000  0.87770000  1
  C  C485  1  0.78580000  0.49240000  0.82250000  1
  C  C486  1  0.78650000  0.50510000  0.31420000  1
  C  C487  1  0.78770000  0.31760000  0.15350000  1
  C  C488  1  0.79080000  0.31120000  0.39130000  1
  C  C489  1  0.79340000  0.11070000  0.40700000  1
  C  C490  1  0.79420000  0.53250000  0.88160000  1
  C  C491  1  0.79550000  0.35130000  0.41990000  1
  C  C492  1  0.79870000  0.76450000  0.62690000  1
  C  C493  1  0.80220000  0.90160000  0.89730000  1
  C  C494  1  0.80430000  0.22330000  0.20110000  1
  C  C495  1  0.80720000  0.95650000  0.84570000  1
  C  C496  1  0.80850000  0.04480000  0.35590000  1
  C  C497  1  0.81120000  0.70920000  0.64130000  1
  C  C498  1  0.81140000  0.86920000  0.33220000  1
  C  C499  1  0.81510000  0.49380000  0.37650000  1
  C  C500  1  0.81520000  0.82830000  0.36090000  1
  C  C501  1  0.81760000  0.71230000  0.40350000  1
  C  C502  1  0.81940000  0.66190000  0.42680000  1
  C  C503  1  0.82370000  0.08760000  0.15330000  1
  C  C504  1  0.82830000  0.81520000  0.63910000  1
  C  C505  1  0.82940000  0.91820000  0.16430000  1
  C  C506  1  0.83120000  0.52980000  0.81180000  1
  C  C507  1  0.83240000  0.46640000  0.30490000  1
  C  C508  1  0.83690000  0.14750000  0.39440000  1
  C  C509  1  0.83810000  0.31940000  0.17680000  1
  C  C510  1  0.84020000  0.57110000  0.87080000  1
  C  C511  1  0.84650000  0.86240000  0.88400000  1
  C  C512  1  0.84660000  0.27110000  0.20040000  1
  C  C513  1  0.85130000  0.70450000  0.66990000  1
  C  C514  1  0.85210000  0.91890000  0.83150000  1
  C  C515  1  0.85250000  0.16310000  0.10560000  1
  C  C516  1  0.85360000  0.08270000  0.34490000  1
  C  C517  1  0.85840000  0.56950000  0.83570000  1
  C  C518  1  0.85910000  0.45570000  0.36790000  1
  C  C519  1  0.86240000  0.84650000  0.11600000  1
  C  C520  1  0.86600000  0.13240000  0.13740000  1
  C  C521  1  0.86760000  0.13400000  0.36260000  1
  C  C522  1  0.86770000  0.43920000  0.33130000  1
  C  C523  1  0.86820000  0.87060000  0.14960000  1
  C  C524  1  0.86920000  0.81140000  0.66780000  1
  C  C525  1  0.87060000  0.86820000  0.85040000  1
  C  C526  1  0.87990000  0.75530000  0.68380000  1
  C  C527  1  0.88770000  0.40680000  0.57410000  1
  C  C528  1  0.88930000  0.20660000  0.09300000  1
  C  C529  1  0.89680000  0.58360000  0.57100000  1
  C  C530  1  0.90160000  0.26930000  0.22410000  1
  C  C531  1  0.90160000  0.80220000  0.10270000  1
  C  C532  1  0.90680000  0.61230000  0.82410000  1
  C  C533  1  0.91240000  0.17630000  0.34670000  1
  C  C534  1  0.91470000  0.08530000  0.25000000  1
  C  C535  1  0.91640000  0.39680000  0.32100000  1
  C  C536  1  0.91730000  0.14640000  0.15510000  1
  C  C537  1  0.91820000  0.82940000  0.83570000  1
  C  C538  1  0.91890000  0.85210000  0.16850000  1
  C  C539  1  0.92420000  0.74800000  0.71490000  1
  C  C540  1  0.92890000  0.34020000  0.62080000  1
  C  C541  1  0.93050000  0.35840000  0.58570000  1
  C  C542  1  0.93920000  0.63230000  0.58130000  1
  C  C543  1  0.94030000  0.22530000  0.11190000  1
  C  C544  1  0.94770000  0.77970000  0.12230000  1
  C  C545  1  0.95520000  0.19150000  0.14410000  1
  C  C546  1  0.95570000  0.64090000  0.61790000  1
  C  C547  1  0.95650000  0.80720000  0.15430000  1
  C  C548  1  0.96640000  0.66760000  0.55490000  1
  C  C549  1  0.96750000  0.29420000  0.63160000  1
  C  C550  1  0.97020000  0.33120000  0.56180000  1
  C  C551  1  0.98110000  0.27630000  0.10100000  1
  C  C552  1  0.99000000  0.73130000  0.10940000  1
  C  C553  1  0.99240000  0.71420000  0.07250000  1
  C  C554  1  0.99380000  0.68490000  0.62650000  1
  C  C555  1  0.99490000  0.28650000  0.06420000  1
  O  O556  1  0.00180000  0.72400000  0.79450000  1
  O  O557  1  0.02620000  0.89810000  0.75220000  1
  O  O558  1  0.04950000  0.20490000  0.22575000  1
  O  O559  1  0.06270000  0.21210000  0.35640000  1
  O  O560  1  0.06380000  0.63690000  0.84520000  1
  O  O561  1  0.06450000  0.60100000  0.78910000  1
  O  O562  1  0.06470000  0.68550000  0.72390000  1
  O  O563  1  0.06500000  0.15940000  0.30350000  1
  O  O564  1  0.06620000  0.83900000  0.81616000  1
  O  O565  1  0.07050000  0.30380000  0.22740000  1
  O  O566  1  0.07340000  0.77580000  0.86270000  1
  O  O567  1  0.07450000  0.35120000  0.34680000  1
  O  O568  1  0.07510000  0.39320000  0.29180000  1
  O  O569  1  0.08890000  0.77930000  0.74172000  1
  O  O570  1  0.10100000  0.43550000  0.03910000  1
  O  O571  1  0.10190000  0.97380000  0.74780000  1
  O  O572  1  0.10680000  0.57510000  0.04180000  1
  O  O573  1  0.13690000  0.43620000  0.09520000  1
  O  O574  1  0.14880000  0.57450000  0.09680000  1
  O  O575  1  0.15940000  0.06500000  0.69650000  1
  O  O576  1  0.16100000  0.93380000  0.68384000  1
  O  O577  1  0.18550000  0.43530000  0.97390000  1
  O  O578  1  0.19620000  0.57050000  0.97740000  1
  O  O579  1  0.20490000  0.04950000  0.77425000  1
  O  O580  1  0.21210000  0.06270000  0.64360000  1
  O  O581  1  0.22070000  0.91110000  0.75828000  1
  O  O582  1  0.22400000  0.49820000  0.04450000  1
  O  O583  1  0.22420000  0.92660000  0.63730000  1
  O  O584  1  0.27580000  0.42660000  0.11270000  1
  O  O585  1  0.27600000  0.99820000  0.70550000  1
  O  O586  1  0.27930000  0.41110000  0.99172000  1
  O  O587  1  0.28790000  0.56270000  0.10640000  1
  O  O588  1  0.29510000  0.54950000  0.97575000  1
  O  O589  1  0.30380000  0.07050000  0.77260000  1
  O  O590  1  0.31450000  0.93530000  0.77610000  1
  O  O591  1  0.33900000  0.43380000  0.06616000  1
  O  O592  1  0.34060000  0.56500000  0.05350000  1
  O  O593  1  0.35120000  0.07450000  0.65320000  1
  O  O594  1  0.36310000  0.93620000  0.65480000  1
  O  O595  1  0.39320000  0.07510000  0.70820000  1
  O  O596  1  0.39810000  0.47380000  0.00220000  1
  O  O597  1  0.39900000  0.93550000  0.71090000  1
  O  O598  1  0.41110000  0.27930000  0.00828000  1
  O  O599  1  0.42490000  0.89320000  0.45820000  1
  O  O600  1  0.42550000  0.85120000  0.40320000  1
  O  O601  1  0.42660000  0.27580000  0.88730000  1
  O  O602  1  0.42950000  0.80380000  0.52260000  1
  O  O603  1  0.43380000  0.33900000  0.93384000  1
  O  O604  1  0.43500000  0.65940000  0.44650000  1
  O  O605  1  0.43530000  0.18550000  0.02610000  1
  O  O606  1  0.43550000  0.10100000  0.96090000  1
  O  O607  1  0.43620000  0.13690000  0.90480000  1
  O  O608  1  0.43730000  0.71210000  0.39360000  1
  O  O609  1  0.45050000  0.70490000  0.52425000  1
  O  O610  1  0.47380000  0.39810000  0.99780000  1
  O  O611  1  0.49820000  0.22400000  0.95550000  1
  O  O612  1  0.50180000  0.77600000  0.45550000  1
  O  O613  1  0.52620000  0.60190000  0.49780000  1
  O  O614  1  0.54950000  0.29510000  0.02425000  1
  O  O615  1  0.56270000  0.28790000  0.89360000  1
  O  O616  1  0.56380000  0.86310000  0.40480000  1
  O  O617  1  0.56450000  0.89900000  0.46090000  1
  O  O618  1  0.56470000  0.81450000  0.52610000  1
  O  O619  1  0.56500000  0.34060000  0.94650000  1
  O  O620  1  0.56620000  0.66100000  0.43384000  1
  O  O621  1  0.57050000  0.19620000  0.02260000  1
  O  O622  1  0.57340000  0.72420000  0.38730000  1
  O  O623  1  0.57450000  0.14880000  0.90320000  1
  O  O624  1  0.57510000  0.10680000  0.95820000  1
  O  O625  1  0.58890000  0.72070000  0.50828000  1
  O  O626  1  0.60100000  0.06450000  0.21090000  1
  O  O627  1  0.60190000  0.52620000  0.50220000  1
  O  O628  1  0.60680000  0.92490000  0.20820000  1
  O  O629  1  0.63690000  0.06380000  0.15480000  1
  O  O630  1  0.64880000  0.92550000  0.15320000  1
  O  O631  1  0.65940000  0.43500000  0.55350000  1
  O  O632  1  0.66100000  0.56620000  0.56616000  1
  O  O633  1  0.68550000  0.06470000  0.27610000  1
  O  O634  1  0.69620000  0.92950000  0.27260000  1
  O  O635  1  0.70490000  0.45050000  0.47575000  1
  O  O636  1  0.71210000  0.43730000  0.60640000  1
  O  O637  1  0.72070000  0.58890000  0.49172000  1
  O  O638  1  0.72400000  0.00180000  0.20550000  1
  O  O639  1  0.72420000  0.57340000  0.61270000  1
  O  O640  1  0.77580000  0.07340000  0.13730000  1
  O  O641  1  0.77600000  0.50180000  0.54450000  1
  O  O642  1  0.77930000  0.08890000  0.25828000  1
  O  O643  1  0.78790000  0.93730000  0.14360000  1
  O  O644  1  0.79510000  0.95050000  0.27425000  1
  O  O645  1  0.80380000  0.42950000  0.47740000  1
  O  O646  1  0.81450000  0.56470000  0.47390000  1
  O  O647  1  0.83900000  0.06620000  0.18384000  1
  O  O648  1  0.84060000  0.93500000  0.19650000  1
  O  O649  1  0.85120000  0.42550000  0.59680000  1
  O  O650  1  0.86310000  0.56380000  0.59520000  1
  O  O651  1  0.89320000  0.42490000  0.54180000  1
  O  O652  1  0.89810000  0.02620000  0.24780000  1
  O  O653  1  0.89900000  0.56450000  0.53910000  1
  O  O654  1  0.91110000  0.22070000  0.24172000  1
  O  O655  1  0.92490000  0.60680000  0.79180000  1
  O  O656  1  0.92550000  0.64880000  0.84680000  1
  O  O657  1  0.92660000  0.22420000  0.36270000  1
  O  O658  1  0.92950000  0.69620000  0.72740000  1
  O  O659  1  0.93380000  0.16100000  0.31616000  1
  O  O660  1  0.93500000  0.84060000  0.80350000  1
  O  O661  1  0.93530000  0.31450000  0.22390000  1
  O  O662  1  0.93550000  0.39900000  0.28910000  1
  O  O663  1  0.93620000  0.36310000  0.34520000  1
  O  O664  1  0.93730000  0.78790000  0.85640000  1
  O  O665  1  0.95050000  0.79510000  0.72575000  1
  O  O666  1  0.97380000  0.10190000  0.25220000  1
  O  O667  1  0.99820000  0.27600000  0.29450000  1
