# generated using pymatgen
data_CdAgH14C28I2(NO4)2
_symmetry_space_group_name_H-M   'P 1'
_cell_length_a   13.40710000
_cell_length_b   15.79400000
_cell_length_c   17.81470000
_cell_angle_alpha   93.02100000
_cell_angle_beta   90.00000000
_cell_angle_gamma   90.00000000
_symmetry_Int_Tables_number   1
_chemical_formula_structural   CdAgH14C28I2(NO4)2
_chemical_formula_sum   'Cd4 Ag4 H56 C112 I8 N8 O32'
_cell_volume   3767.05126522
_cell_formula_units_Z   4
loop_
 _symmetry_equiv_pos_site_id
 _symmetry_equiv_pos_as_xyz
  1  'x, y, z'
loop_
 _atom_site_type_symbol
 _atom_site_label
 _atom_site_symmetry_multiplicity
 _atom_site_fract_x
 _atom_site_fract_y
 _atom_site_fract_z
 _atom_site_occupancy
  Cd  Cd0  1  0.01316000  0.74651000  0.26068000  1
  Cd  Cd1  1  0.48684000  0.74651000  0.76068000  1
  Cd  Cd2  1  0.51316000  0.25349000  0.23932000  1
  Cd  Cd3  1  0.98684000  0.25349000  0.73932000  1
  Ag  Ag4  1  0.23038000  0.70157000  0.13086000  1
  Ag  Ag5  1  0.26962000  0.70157000  0.63086000  1
  Ag  Ag6  1  0.73038000  0.29843000  0.36914000  1
  Ag  Ag7  1  0.76962000  0.29843000  0.86914000  1
  H  H8  1  0.00950000  0.08820000  0.54080000  1
  H  H9  1  0.02690000  0.10260000  0.17320000  1
  H  H10  1  0.08580000  0.81600000  0.88530000  1
  H  H11  1  0.09880000  0.04720000  0.41520000  1
  H  H12  1  0.10070000  0.05110000  0.29080000  1
  H  H13  1  0.10820000  0.42620000  0.94560000  1
  H  H14  1  0.11780000  0.91310000  0.05990000  1
  H  H15  1  0.12780000  0.85550000  0.39820000  1
  H  H16  1  0.19750000  0.61890000  0.45250000  1
  H  H17  1  0.19910000  0.11410000  0.56260000  1
  H  H18  1  0.20810000  0.74440000  0.81350000  1
  H  H19  1  0.23190000  0.77310000  0.46300000  1
  H  H20  1  0.23650000  0.98220000  0.74820000  1
  H  H21  1  0.24300000  0.49440000  0.75650000  1
  H  H22  1  0.25700000  0.49440000  0.25650000  1
  H  H23  1  0.26350000  0.98220000  0.24820000  1
  H  H24  1  0.26810000  0.77310000  0.96300000  1
  H  H25  1  0.29190000  0.74440000  0.31350000  1
  H  H26  1  0.30090000  0.11410000  0.06260000  1
  H  H27  1  0.30250000  0.61890000  0.95250000  1
  H  H28  1  0.37220000  0.85550000  0.89820000  1
  H  H29  1  0.38220000  0.91310000  0.55990000  1
  H  H30  1  0.39180000  0.42620000  0.44560000  1
  H  H31  1  0.39930000  0.05110000  0.79080000  1
  H  H32  1  0.40120000  0.04720000  0.91520000  1
  H  H33  1  0.41420000  0.81600000  0.38530000  1
  H  H34  1  0.47310000  0.10260000  0.67320000  1
  H  H35  1  0.49050000  0.08820000  0.04080000  1
  H  H36  1  0.50950000  0.91180000  0.95920000  1
  H  H37  1  0.52690000  0.89740000  0.32680000  1
  H  H38  1  0.58580000  0.18400000  0.61470000  1
  H  H39  1  0.59880000  0.95280000  0.08480000  1
  H  H40  1  0.60070000  0.94890000  0.20920000  1
  H  H41  1  0.60820000  0.57380000  0.55440000  1
  H  H42  1  0.61780000  0.08690000  0.44010000  1
  H  H43  1  0.62780000  0.14450000  0.10180000  1
  H  H44  1  0.69750000  0.38110000  0.04750000  1
  H  H45  1  0.69910000  0.88590000  0.93740000  1
  H  H46  1  0.70810000  0.25560000  0.68650000  1
  H  H47  1  0.73190000  0.22690000  0.03700000  1
  H  H48  1  0.73650000  0.01780000  0.75180000  1
  H  H49  1  0.74300000  0.50560000  0.74350000  1
  H  H50  1  0.75700000  0.50560000  0.24350000  1
  H  H51  1  0.76350000  0.01780000  0.25180000  1
  H  H52  1  0.76810000  0.22690000  0.53700000  1
  H  H53  1  0.79190000  0.25560000  0.18650000  1
  H  H54  1  0.80090000  0.88590000  0.43740000  1
  H  H55  1  0.80250000  0.38110000  0.54750000  1
  H  H56  1  0.87220000  0.14450000  0.60180000  1
  H  H57  1  0.88220000  0.08690000  0.94010000  1
  H  H58  1  0.89180000  0.57380000  0.05440000  1
  H  H59  1  0.89930000  0.94890000  0.70920000  1
  H  H60  1  0.90120000  0.95280000  0.58480000  1
  H  H61  1  0.91420000  0.18400000  0.11470000  1
  H  H62  1  0.97310000  0.89740000  0.82680000  1
  H  H63  1  0.99050000  0.91180000  0.45920000  1
  C  C64  1  0.01770000  0.87110000  0.72130000  1
  C  C65  1  0.01980000  0.86660000  0.79810000  1
  C  C66  1  0.02710000  0.87890000  0.56280000  1
  C  C67  1  0.03840000  0.88340000  0.48610000  1
  C  C68  1  0.04980000  0.07790000  0.39160000  1
  C  C69  1  0.05170000  0.08130000  0.31790000  1
  C  C70  1  0.08690000  0.81910000  0.83330000  1
  C  C71  1  0.09090000  0.82400000  0.68050000  1
  C  C72  1  0.09660000  0.83050000  0.60150000  1
  C  C73  1  0.11420000  0.37940000  0.79930000  1
  C  C74  1  0.11710000  0.84760000  0.44900000  1
  C  C75  1  0.13110000  0.86780000  0.20020000  1
  C  C76  1  0.13420000  0.11650000  0.70610000  1
  C  C77  1  0.14810000  0.62280000  0.30650000  1
  C  C78  1  0.15210000  0.46070000  0.92080000  1
  C  C79  1  0.15880000  0.77430000  0.78950000  1
  C  C80  1  0.15980000  0.95040000  0.08690000  1
  C  C81  1  0.16940000  0.44750000  0.84370000  1
  C  C82  1  0.17950000  0.80000000  0.48870000  1
  C  C83  1  0.18150000  0.93840000  0.15920000  1
  C  C84  1  0.20110000  0.52540000  0.95890000  1
  C  C85  1  0.20130000  0.01980000  0.05330000  1
  C  C86  1  0.20550000  0.05660000  0.66320000  1
  C  C87  1  0.21590000  0.56470000  0.34770000  1
  C  C88  1  0.22960000  0.07090000  0.58780000  1
  C  C89  1  0.23170000  0.57680000  0.42460000  1
  C  C90  1  0.23380000  0.50140000  0.80820000  1
  C  C91  1  0.24900000  0.99110000  0.19820000  1
  C  C92  1  0.25100000  0.99110000  0.69820000  1
  C  C93  1  0.26620000  0.50140000  0.30820000  1
  C  C94  1  0.26830000  0.57680000  0.92460000  1
  C  C95  1  0.27040000  0.07090000  0.08780000  1
  C  C96  1  0.28410000  0.56470000  0.84770000  1
  C  C97  1  0.29450000  0.05660000  0.16320000  1
  C  C98  1  0.29870000  0.01980000  0.55330000  1
  C  C99  1  0.29890000  0.52540000  0.45890000  1
  C  C100  1  0.31850000  0.93840000  0.65920000  1
  C  C101  1  0.32050000  0.80000000  0.98870000  1
  C  C102  1  0.33060000  0.44750000  0.34370000  1
  C  C103  1  0.34020000  0.95040000  0.58690000  1
  C  C104  1  0.34120000  0.77430000  0.28950000  1
  C  C105  1  0.34790000  0.46070000  0.42080000  1
  C  C106  1  0.35190000  0.62280000  0.80650000  1
  C  C107  1  0.36580000  0.11650000  0.20610000  1
  C  C108  1  0.36890000  0.86780000  0.70020000  1
  C  C109  1  0.38290000  0.84760000  0.94900000  1
  C  C110  1  0.38580000  0.37940000  0.29930000  1
  C  C111  1  0.40340000  0.83050000  0.10150000  1
  C  C112  1  0.40910000  0.82400000  0.18050000  1
  C  C113  1  0.41310000  0.81910000  0.33333333  1
  C  C114  1  0.44830000  0.08130000  0.81790000  1
  C  C115  1  0.45020000  0.07790000  0.89160000  1
  C  C116  1  0.46160000  0.88340000  0.98610000  1
  C  C117  1  0.47290000  0.87890000  0.06280000  1
  C  C118  1  0.48020000  0.86660000  0.29810000  1
  C  C119  1  0.48230000  0.87110000  0.22130000  1
  C  C120  1  0.51770000  0.12890000  0.77870000  1
  C  C121  1  0.51980000  0.13340000  0.70190000  1
  C  C122  1  0.52710000  0.12110000  0.93720000  1
  C  C123  1  0.53840000  0.11660000  0.01390000  1
  C  C124  1  0.54980000  0.92210000  0.10840000  1
  C  C125  1  0.55170000  0.91870000  0.18210000  1
  C  C126  1  0.58690000  0.18090000  0.66666667  1
  C  C127  1  0.59090000  0.17600000  0.81950000  1
  C  C128  1  0.59660000  0.16950000  0.89850000  1
  C  C129  1  0.61420000  0.62060000  0.70070000  1
  C  C130  1  0.61710000  0.15240000  0.05100000  1
  C  C131  1  0.63110000  0.13220000  0.29980000  1
  C  C132  1  0.63420000  0.88350000  0.79390000  1
  C  C133  1  0.64810000  0.37720000  0.19350000  1
  C  C134  1  0.65210000  0.53930000  0.57920000  1
  C  C135  1  0.65880000  0.22570000  0.71050000  1
  C  C136  1  0.65980000  0.04960000  0.41310000  1
  C  C137  1  0.66940000  0.55250000  0.65630000  1
  C  C138  1  0.67950000  0.20000000  0.01130000  1
  C  C139  1  0.68150000  0.06160000  0.34080000  1
  C  C140  1  0.70110000  0.47460000  0.54110000  1
  C  C141  1  0.70130000  0.98020000  0.44670000  1
  C  C142  1  0.70550000  0.94340000  0.83680000  1
  C  C143  1  0.71590000  0.43530000  0.15230000  1
  C  C144  1  0.72960000  0.92910000  0.91220000  1
  C  C145  1  0.73170000  0.42320000  0.07540000  1
  C  C146  1  0.73380000  0.49860000  0.69180000  1
  C  C147  1  0.74900000  0.00890000  0.30180000  1
  C  C148  1  0.75100000  0.00890000  0.80180000  1
  C  C149  1  0.76620000  0.49860000  0.19180000  1
  C  C150  1  0.76830000  0.42320000  0.57540000  1
  C  C151  1  0.77040000  0.92910000  0.41220000  1
  C  C152  1  0.78410000  0.43530000  0.65230000  1
  C  C153  1  0.79450000  0.94340000  0.33680000  1
  C  C154  1  0.79870000  0.98020000  0.94670000  1
  C  C155  1  0.79890000  0.47460000  0.04110000  1
  C  C156  1  0.81850000  0.06160000  0.84080000  1
  C  C157  1  0.82050000  0.20000000  0.51130000  1
  C  C158  1  0.83060000  0.55250000  0.15630000  1
  C  C159  1  0.84020000  0.04960000  0.91310000  1
  C  C160  1  0.84120000  0.22570000  0.21050000  1
  C  C161  1  0.84790000  0.53930000  0.07920000  1
  C  C162  1  0.85190000  0.37720000  0.69350000  1
  C  C163  1  0.86580000  0.88350000  0.29390000  1
  C  C164  1  0.86890000  0.13220000  0.79980000  1
  C  C165  1  0.88290000  0.15240000  0.55100000  1
  C  C166  1  0.88580000  0.62060000  0.20070000  1
  C  C167  1  0.90340000  0.16950000  0.39850000  1
  C  C168  1  0.90910000  0.17600000  0.31950000  1
  C  C169  1  0.91310000  0.18090000  0.16670000  1
  C  C170  1  0.94830000  0.91870000  0.68210000  1
  C  C171  1  0.95020000  0.92210000  0.60840000  1
  C  C172  1  0.96160000  0.11660000  0.51390000  1
  C  C173  1  0.97290000  0.12110000  0.43720000  1
  C  C174  1  0.98020000  0.13340000  0.20190000  1
  C  C175  1  0.98230000  0.12890000  0.27870000  1
  I  I176  1  0.16028000  0.04104000  0.93957000  1
  I  I177  1  0.16865000  0.54402000  0.07529000  1
  I  I178  1  0.33135000  0.54402000  0.57529000  1
  I  I179  1  0.33972000  0.04104000  0.43957000  1
  I  I180  1  0.66028000  0.95896000  0.56043000  1
  I  I181  1  0.66865000  0.45598000  0.42471000  1
  I  I182  1  0.83135000  0.45598000  0.92471000  1
  I  I183  1  0.83972000  0.95896000  0.06043000  1
  N  N184  1  0.15830000  0.77350000  0.71600000  1
  N  N185  1  0.17150000  0.78850000  0.56360000  1
  N  N186  1  0.32850000  0.78850000  0.06360000  1
  N  N187  1  0.34170000  0.77350000  0.21600000  1
  N  N188  1  0.65830000  0.22650000  0.78400000  1
  N  N189  1  0.67150000  0.21150000  0.93640000  1
  N  N190  1  0.82850000  0.21150000  0.43640000  1
  N  N191  1  0.84170000  0.22650000  0.28400000  1
  O  O192  1  0.07230000  0.32170000  0.83610000  1
  O  O193  1  0.09230000  0.80740000  0.15840000  1
  O  O194  1  0.09280000  0.17290000  0.66880000  1
  O  O195  1  0.10270000  0.67930000  0.34700000  1
  O  O196  1  0.10730000  0.38000000  0.72890000  1
  O  O197  1  0.12240000  0.10810000  0.77480000  1
  O  O198  1  0.12450000  0.87140000  0.26780000  1
  O  O199  1  0.13880000  0.61500000  0.23830000  1
  O  O200  1  0.36120000  0.61500000  0.73830000  1
  O  O201  1  0.37550000  0.87140000  0.76780000  1
  O  O202  1  0.37760000  0.10810000  0.27480000  1
  O  O203  1  0.39270000  0.38000000  0.22890000  1
  O  O204  1  0.39730000  0.67930000  0.84700000  1
  O  O205  1  0.40720000  0.17290000  0.16880000  1
  O  O206  1  0.40770000  0.80740000  0.65840000  1
  O  O207  1  0.42770000  0.32170000  0.33610000  1
  O  O208  1  0.57230000  0.67830000  0.66390000  1
  O  O209  1  0.59230000  0.19260000  0.34160000  1
  O  O210  1  0.59280000  0.82710000  0.83120000  1
  O  O211  1  0.60270000  0.32070000  0.15300000  1
  O  O212  1  0.60730000  0.62000000  0.77110000  1
  O  O213  1  0.62240000  0.89190000  0.72520000  1
  O  O214  1  0.62450000  0.12860000  0.23220000  1
  O  O215  1  0.63880000  0.38500000  0.26170000  1
  O  O216  1  0.86120000  0.38500000  0.76170000  1
  O  O217  1  0.87550000  0.12860000  0.73220000  1
  O  O218  1  0.87760000  0.89190000  0.22520000  1
  O  O219  1  0.89270000  0.62000000  0.27110000  1
  O  O220  1  0.89730000  0.32070000  0.65300000  1
  O  O221  1  0.90720000  0.82710000  0.33120000  1
  O  O222  1  0.90770000  0.19260000  0.84160000  1
  O  O223  1  0.92770000  0.67830000  0.16390000  1
