# generated using pymatgen
data_ZnH12C23BrN3O4
_symmetry_space_group_name_H-M   'P 1'
_cell_length_a   11.61510000
_cell_length_b   15.64800000
_cell_length_c   18.16300000
_cell_angle_alpha   90.00000000
_cell_angle_beta   93.20200000
_cell_angle_gamma   90.00000000
_symmetry_Int_Tables_number   1
_chemical_formula_structural   ZnH12C23BrN3O4
_chemical_formula_sum   'Zn2 H24 C46 Br2 N6 O8'
_cell_volume   3296.02752464
_cell_formula_units_Z   2
loop_
 _symmetry_equiv_pos_site_id
 _symmetry_equiv_pos_as_xyz
  1  'x, y, z'
loop_
 _atom_site_type_symbol
 _atom_site_label
 _atom_site_symmetry_multiplicity
 _atom_site_fract_x
 _atom_site_fract_y
 _atom_site_fract_z
 _atom_site_occupancy
  Zn  Zn0  1  0.00762000  0.00000000  0.08107000  1
  Zn  Zn1  1  0.99238000  0.00000000  0.91893000  1
  H  H2  1  0.15980000  0.00000000  0.80260000  1
  H  H3  1  0.16710000  0.00000000  0.67890000  1
  H  H4  1  0.17300000  0.00000000  0.21010000  1
  H  H5  1  0.17650000  0.00000000  0.33660000  1
  H  H6  1  0.24200000  0.20200000  0.89000000  1
  H  H7  1  0.24200000  0.79800000  0.89000000  1
  H  H8  1  0.25760000  0.20460000  0.11120000  1
  H  H9  1  0.25760000  0.79540000  0.11120000  1
  H  H10  1  0.35120000  0.32830000  0.89020000  1
  H  H11  1  0.35120000  0.67170000  0.89020000  1
  H  H12  1  0.37900000  0.32820000  0.10690000  1
  H  H13  1  0.37900000  0.67180000  0.10690000  1
  H  H14  1  0.62100000  0.32820000  0.89310000  1
  H  H15  1  0.62100000  0.67180000  0.89310000  1
  H  H16  1  0.64880000  0.32830000  0.10980000  1
  H  H17  1  0.64880000  0.67170000  0.10980000  1
  H  H18  1  0.74240000  0.20460000  0.88880000  1
  H  H19  1  0.74240000  0.79540000  0.88880000  1
  H  H20  1  0.75800000  0.20200000  0.11000000  1
  H  H21  1  0.75800000  0.79800000  0.11000000  1
  H  H22  1  0.82350000  0.00000000  0.66340000  1
  H  H23  1  0.82700000  0.00000000  0.78990000  1
  H  H24  1  0.83290000  0.00000000  0.32110000  1
  H  H25  1  0.84020000  0.00000000  0.19740000  1
  C  C26  1  0.00128000  0.00000000  0.43010000  1
  C  C27  1  0.00279000  0.00000000  0.34710000  1
  C  C28  1  0.09020000  0.00000000  0.77470000  1
  C  C29  1  0.09540000  0.00000000  0.69920000  1
  C  C30  1  0.10310000  0.00000000  0.23270000  1
  C  C31  1  0.10590000  0.00000000  0.30980000  1
  C  C32  1  0.15150000  0.11560000  0.99900000  1
  C  C33  1  0.15150000  0.88440000  0.99900000  1
  C  C34  1  0.23520000  0.19410000  0.00000000  1
  C  C35  1  0.23520000  0.80590000  0.00000000  1
  C  C36  1  0.26570000  0.22810000  0.93430000  1
  C  C37  1  0.26570000  0.77190000  0.93430000  1
  C  C38  1  0.27590000  0.22850000  0.06650000  1
  C  C39  1  0.27590000  0.77150000  0.06650000  1
  C  C40  1  0.33360000  0.30330000  0.93450000  1
  C  C41  1  0.33360000  0.69670000  0.93450000  1
  C  C42  1  0.34890000  0.30410000  0.06320000  1
  C  C43  1  0.34890000  0.69590000  0.06320000  1
  C  C44  1  0.37340000  0.33930000  0.00010000  1
  C  C45  1  0.37340000  0.66070000  0.00010000  1
  C  C46  1  0.38440000  0.50000000  0.99710000  1
  C  C47  1  0.43740000  0.42230000  0.00050000  1
  C  C48  1  0.43740000  0.57770000  0.00050000  1
  C  C49  1  0.56260000  0.42230000  0.99950000  1
  C  C50  1  0.56260000  0.57770000  0.99950000  1
  C  C51  1  0.61560000  0.50000000  0.00290000  1
  C  C52  1  0.62660000  0.33930000  0.99990000  1
  C  C53  1  0.62660000  0.66070000  0.99990000  1
  C  C54  1  0.65110000  0.30410000  0.93680000  1
  C  C55  1  0.65110000  0.69590000  0.93680000  1
  C  C56  1  0.66640000  0.30330000  0.06550000  1
  C  C57  1  0.66640000  0.69670000  0.06550000  1
  C  C58  1  0.72410000  0.22850000  0.93350000  1
  C  C59  1  0.72410000  0.77150000  0.93350000  1
  C  C60  1  0.73430000  0.22810000  0.06570000  1
  C  C61  1  0.73430000  0.77190000  0.06570000  1
  C  C62  1  0.76480000  0.19410000  0.00000000  1
  C  C63  1  0.76480000  0.80590000  0.00000000  1
  C  C64  1  0.84850000  0.11560000  0.00100000  1
  C  C65  1  0.84850000  0.88440000  0.00100000  1
  C  C66  1  0.89410000  0.00000000  0.69020000  1
  C  C67  1  0.89690000  0.00000000  0.76730000  1
  C  C68  1  0.90460000  0.00000000  0.30080000  1
  C  C69  1  0.90980000  0.00000000  0.22530000  1
  C  C70  1  0.99721000  0.00000000  0.65290000  1
  C  C71  1  0.99872000  0.00000000  0.56990000  1
  Br  Br72  1  0.21933000  0.50000000  0.00062000  1
  Br  Br73  1  0.78067000  0.50000000  0.99938000  1
  N  N74  1  0.00566000  0.00000000  0.18930000  1
  N  N75  1  0.09980000  0.00000000  0.53870000  1
  N  N76  1  0.10310000  0.00000000  0.46720000  1
  N  N77  1  0.89690000  0.00000000  0.53280000  1
  N  N78  1  0.90020000  0.00000000  0.46130000  1
  N  N79  1  0.99434000  0.00000000  0.81070000  1
  O  O80  1  0.11620000  0.09090000  0.93740000  1
  O  O81  1  0.11620000  0.90910000  0.93740000  1
  O  O82  1  0.12970000  0.09110000  0.06050000  1
  O  O83  1  0.12970000  0.90890000  0.06050000  1
  O  O84  1  0.87030000  0.09110000  0.93950000  1
  O  O85  1  0.87030000  0.90890000  0.93950000  1
  O  O86  1  0.88380000  0.09090000  0.06260000  1
  O  O87  1  0.88380000  0.90910000  0.06260000  1
