# generated using pymatgen
data_ZrCu2H40C56(N4F3)2
_symmetry_space_group_name_H-M   'P 1'
_cell_length_a   21.16500000
_cell_length_b   21.16500000
_cell_length_c   21.16500000
_cell_angle_alpha   90.00000000
_cell_angle_beta   90.00000000
_cell_angle_gamma   90.00000000
_symmetry_Int_Tables_number   1
_chemical_formula_structural   ZrCu2H40C56(N4F3)2
_chemical_formula_sum   'Zr3 Cu6 H120 C168 N24 F18'
_cell_volume   9481.01466712
_cell_formula_units_Z   3
loop_
 _symmetry_equiv_pos_site_id
 _symmetry_equiv_pos_as_xyz
  1  'x, y, z'
loop_
 _atom_site_type_symbol
 _atom_site_label
 _atom_site_symmetry_multiplicity
 _atom_site_fract_x
 _atom_site_fract_y
 _atom_site_fract_z
 _atom_site_occupancy
  Zr  Zr0  1  0.00000000  0.50000000  0.50000000  1
  Zr  Zr1  1  0.50000000  0.00000000  0.50000000  1
  Zr  Zr2  1  0.50000000  0.50000000  0.00000000  1
  Cu  Cu3  1  0.00000000  0.50000000  0.31360000  1
  Cu  Cu4  1  0.00000000  0.50000000  0.68640000  1
  Cu  Cu5  1  0.31360000  0.00000000  0.50000000  1
  Cu  Cu6  1  0.50000000  0.31360000  0.00000000  1
  Cu  Cu7  1  0.50000000  0.68640000  0.00000000  1
  Cu  Cu8  1  0.68640000  0.00000000  0.50000000  1
  H  H9  1  0.06810000  0.42750000  0.20460000  1
  H  H10  1  0.06810000  0.42750000  0.79540000  1
  H  H11  1  0.06810000  0.57250000  0.20460000  1
  H  H12  1  0.06810000  0.57250000  0.79540000  1
  H  H13  1  0.08210000  0.42110000  0.39550000  1
  H  H14  1  0.08210000  0.42110000  0.60450000  1
  H  H15  1  0.08210000  0.57890000  0.39550000  1
  H  H16  1  0.08210000  0.57890000  0.60450000  1
  H  H17  1  0.15170000  0.35560000  0.19610000  1
  H  H18  1  0.15170000  0.35560000  0.80390000  1
  H  H19  1  0.15170000  0.64440000  0.19610000  1
  H  H20  1  0.15170000  0.64440000  0.80390000  1
  H  H21  1  0.16560000  0.34920000  0.38690000  1
  H  H22  1  0.16560000  0.34920000  0.61310000  1
  H  H23  1  0.16560000  0.65080000  0.38690000  1
  H  H24  1  0.16560000  0.65080000  0.61310000  1
  H  H25  1  0.19610000  0.15170000  0.35560000  1
  H  H26  1  0.19610000  0.15170000  0.64440000  1
  H  H27  1  0.19610000  0.84830000  0.35560000  1
  H  H28  1  0.19610000  0.84830000  0.64440000  1
  H  H29  1  0.20290000  0.25080000  0.35130000  1
  H  H30  1  0.20290000  0.25080000  0.64870000  1
  H  H31  1  0.20290000  0.74920000  0.35130000  1
  H  H32  1  0.20290000  0.74920000  0.64870000  1
  H  H33  1  0.20460000  0.06810000  0.42750000  1
  H  H34  1  0.20460000  0.06810000  0.57250000  1
  H  H35  1  0.20460000  0.93190000  0.42750000  1
  H  H36  1  0.20460000  0.93190000  0.57250000  1
  H  H37  1  0.25080000  0.35130000  0.20290000  1
  H  H38  1  0.25080000  0.35130000  0.79710000  1
  H  H39  1  0.25080000  0.64870000  0.20290000  1
  H  H40  1  0.25080000  0.64870000  0.79710000  1
  H  H41  1  0.34920000  0.38690000  0.16560000  1
  H  H42  1  0.34920000  0.38690000  0.83440000  1
  H  H43  1  0.34920000  0.61310000  0.16560000  1
  H  H44  1  0.34920000  0.61310000  0.83440000  1
  H  H45  1  0.35130000  0.20290000  0.25080000  1
  H  H46  1  0.35130000  0.20290000  0.74920000  1
  H  H47  1  0.35130000  0.79710000  0.25080000  1
  H  H48  1  0.35130000  0.79710000  0.74920000  1
  H  H49  1  0.35560000  0.19610000  0.15170000  1
  H  H50  1  0.35560000  0.19610000  0.84830000  1
  H  H51  1  0.35560000  0.80390000  0.15170000  1
  H  H52  1  0.35560000  0.80390000  0.84830000  1
  H  H53  1  0.38690000  0.16560000  0.34920000  1
  H  H54  1  0.38690000  0.16560000  0.65080000  1
  H  H55  1  0.38690000  0.83440000  0.34920000  1
  H  H56  1  0.38690000  0.83440000  0.65080000  1
  H  H57  1  0.39550000  0.08210000  0.42110000  1
  H  H58  1  0.39550000  0.08210000  0.57890000  1
  H  H59  1  0.39550000  0.91790000  0.42110000  1
  H  H60  1  0.39550000  0.91790000  0.57890000  1
  H  H61  1  0.42110000  0.39550000  0.08210000  1
  H  H62  1  0.42110000  0.39550000  0.91790000  1
  H  H63  1  0.42110000  0.60450000  0.08210000  1
  H  H64  1  0.42110000  0.60450000  0.91790000  1
  H  H65  1  0.42750000  0.20460000  0.06810000  1
  H  H66  1  0.42750000  0.20460000  0.93190000  1
  H  H67  1  0.42750000  0.79540000  0.06810000  1
  H  H68  1  0.42750000  0.79540000  0.93190000  1
  H  H69  1  0.57250000  0.20460000  0.06810000  1
  H  H70  1  0.57250000  0.20460000  0.93190000  1
  H  H71  1  0.57250000  0.79540000  0.06810000  1
  H  H72  1  0.57250000  0.79540000  0.93190000  1
  H  H73  1  0.57890000  0.39550000  0.08210000  1
  H  H74  1  0.57890000  0.39550000  0.91790000  1
  H  H75  1  0.57890000  0.60450000  0.08210000  1
  H  H76  1  0.57890000  0.60450000  0.91790000  1
  H  H77  1  0.60450000  0.08210000  0.42110000  1
  H  H78  1  0.60450000  0.08210000  0.57890000  1
  H  H79  1  0.60450000  0.91790000  0.42110000  1
  H  H80  1  0.60450000  0.91790000  0.57890000  1
  H  H81  1  0.61310000  0.16560000  0.34920000  1
  H  H82  1  0.61310000  0.16560000  0.65080000  1
  H  H83  1  0.61310000  0.83440000  0.34920000  1
  H  H84  1  0.61310000  0.83440000  0.65080000  1
  H  H85  1  0.64440000  0.19610000  0.15170000  1
  H  H86  1  0.64440000  0.19610000  0.84830000  1
  H  H87  1  0.64440000  0.80390000  0.15170000  1
  H  H88  1  0.64440000  0.80390000  0.84830000  1
  H  H89  1  0.64870000  0.20290000  0.25080000  1
  H  H90  1  0.64870000  0.20290000  0.74920000  1
  H  H91  1  0.64870000  0.79710000  0.25080000  1
  H  H92  1  0.64870000  0.79710000  0.74920000  1
  H  H93  1  0.65080000  0.38690000  0.16560000  1
  H  H94  1  0.65080000  0.38690000  0.83440000  1
  H  H95  1  0.65080000  0.61310000  0.16560000  1
  H  H96  1  0.65080000  0.61310000  0.83440000  1
  H  H97  1  0.74920000  0.35130000  0.20290000  1
  H  H98  1  0.74920000  0.35130000  0.79710000  1
  H  H99  1  0.74920000  0.64870000  0.20290000  1
  H  H100  1  0.74920000  0.64870000  0.79710000  1
  H  H101  1  0.79540000  0.06810000  0.42750000  1
  H  H102  1  0.79540000  0.06810000  0.57250000  1
  H  H103  1  0.79540000  0.93190000  0.42750000  1
  H  H104  1  0.79540000  0.93190000  0.57250000  1
  H  H105  1  0.79710000  0.25080000  0.35130000  1
  H  H106  1  0.79710000  0.25080000  0.64870000  1
  H  H107  1  0.79710000  0.74920000  0.35130000  1
  H  H108  1  0.79710000  0.74920000  0.64870000  1
  H  H109  1  0.80390000  0.15170000  0.35560000  1
  H  H110  1  0.80390000  0.15170000  0.64440000  1
  H  H111  1  0.80390000  0.84830000  0.35560000  1
  H  H112  1  0.80390000  0.84830000  0.64440000  1
  H  H113  1  0.83440000  0.34920000  0.38690000  1
  H  H114  1  0.83440000  0.34920000  0.61310000  1
  H  H115  1  0.83440000  0.65080000  0.38690000  1
  H  H116  1  0.83440000  0.65080000  0.61310000  1
  H  H117  1  0.84830000  0.35560000  0.19610000  1
  H  H118  1  0.84830000  0.35560000  0.80390000  1
  H  H119  1  0.84830000  0.64440000  0.19610000  1
  H  H120  1  0.84830000  0.64440000  0.80390000  1
  H  H121  1  0.91790000  0.42110000  0.39550000  1
  H  H122  1  0.91790000  0.42110000  0.60450000  1
  H  H123  1  0.91790000  0.57890000  0.39550000  1
  H  H124  1  0.91790000  0.57890000  0.60450000  1
  H  H125  1  0.93190000  0.42750000  0.20460000  1
  H  H126  1  0.93190000  0.42750000  0.79540000  1
  H  H127  1  0.93190000  0.57250000  0.20460000  1
  H  H128  1  0.93190000  0.57250000  0.79540000  1
  C  C129  1  0.08790000  0.41160000  0.24160000  1
  C  C130  1  0.08790000  0.41160000  0.75840000  1
  C  C131  1  0.08790000  0.58840000  0.24160000  1
  C  C132  1  0.08790000  0.58840000  0.75840000  1
  C  C133  1  0.09620000  0.40780000  0.35500000  1
  C  C134  1  0.09620000  0.40780000  0.64500000  1
  C  C135  1  0.09620000  0.59220000  0.35500000  1
  C  C136  1  0.09620000  0.59220000  0.64500000  1
  C  C137  1  0.13760000  0.36890000  0.23650000  1
  C  C138  1  0.13760000  0.36890000  0.76350000  1
  C  C139  1  0.13760000  0.63110000  0.23650000  1
  C  C140  1  0.13760000  0.63110000  0.76350000  1
  C  C141  1  0.14580000  0.36510000  0.34990000  1
  C  C142  1  0.14580000  0.36510000  0.65010000  1
  C  C143  1  0.14580000  0.63490000  0.34990000  1
  C  C144  1  0.14580000  0.63490000  0.65010000  1
  C  C145  1  0.16650000  0.34560000  0.29070000  1
  C  C146  1  0.16650000  0.34560000  0.70930000  1
  C  C147  1  0.16650000  0.65440000  0.29070000  1
  C  C148  1  0.16650000  0.65440000  0.70930000  1
  C  C149  1  0.21720000  0.30500000  0.27610000  1
  C  C150  1  0.21720000  0.30500000  0.72390000  1
  C  C151  1  0.21720000  0.69500000  0.27610000  1
  C  C152  1  0.21720000  0.69500000  0.72390000  1
  C  C153  1  0.22900000  0.25670000  0.31520000  1
  C  C154  1  0.22900000  0.25670000  0.68480000  1
  C  C155  1  0.22900000  0.74330000  0.31520000  1
  C  C156  1  0.22900000  0.74330000  0.68480000  1
  C  C157  1  0.23650000  0.13760000  0.36890000  1
  C  C158  1  0.23650000  0.13760000  0.63110000  1
  C  C159  1  0.23650000  0.86240000  0.36890000  1
  C  C160  1  0.23650000  0.86240000  0.63110000  1
  C  C161  1  0.24160000  0.08790000  0.41160000  1
  C  C162  1  0.24160000  0.08790000  0.58840000  1
  C  C163  1  0.24160000  0.91210000  0.41160000  1
  C  C164  1  0.24160000  0.91210000  0.58840000  1
  C  C165  1  0.25670000  0.31520000  0.22900000  1
  C  C166  1  0.25670000  0.31520000  0.77100000  1
  C  C167  1  0.25670000  0.68480000  0.22900000  1
  C  C168  1  0.25670000  0.68480000  0.77100000  1
  C  C169  1  0.27610000  0.21720000  0.30500000  1
  C  C170  1  0.27610000  0.21720000  0.69500000  1
  C  C171  1  0.27610000  0.78280000  0.30500000  1
  C  C172  1  0.27610000  0.78280000  0.69500000  1
  C  C173  1  0.29070000  0.16650000  0.34560000  1
  C  C174  1  0.29070000  0.16650000  0.65440000  1
  C  C175  1  0.29070000  0.83350000  0.34560000  1
  C  C176  1  0.29070000  0.83350000  0.65440000  1
  C  C177  1  0.30500000  0.27610000  0.21720000  1
  C  C178  1  0.30500000  0.27610000  0.78280000  1
  C  C179  1  0.30500000  0.72390000  0.21720000  1
  C  C180  1  0.30500000  0.72390000  0.78280000  1
  C  C181  1  0.31520000  0.22900000  0.25670000  1
  C  C182  1  0.31520000  0.22900000  0.74330000  1
  C  C183  1  0.31520000  0.77100000  0.25670000  1
  C  C184  1  0.31520000  0.77100000  0.74330000  1
  C  C185  1  0.34560000  0.29070000  0.16650000  1
  C  C186  1  0.34560000  0.29070000  0.83350000  1
  C  C187  1  0.34560000  0.70930000  0.16650000  1
  C  C188  1  0.34560000  0.70930000  0.83350000  1
  C  C189  1  0.34990000  0.14580000  0.36510000  1
  C  C190  1  0.34990000  0.14580000  0.63490000  1
  C  C191  1  0.34990000  0.85420000  0.36510000  1
  C  C192  1  0.34990000  0.85420000  0.63490000  1
  C  C193  1  0.35500000  0.09620000  0.40780000  1
  C  C194  1  0.35500000  0.09620000  0.59220000  1
  C  C195  1  0.35500000  0.90380000  0.40780000  1
  C  C196  1  0.35500000  0.90380000  0.59220000  1
  C  C197  1  0.36510000  0.34990000  0.14580000  1
  C  C198  1  0.36510000  0.34990000  0.85420000  1
  C  C199  1  0.36510000  0.65010000  0.14580000  1
  C  C200  1  0.36510000  0.65010000  0.85420000  1
  C  C201  1  0.36890000  0.23650000  0.13760000  1
  C  C202  1  0.36890000  0.23650000  0.86240000  1
  C  C203  1  0.36890000  0.76350000  0.13760000  1
  C  C204  1  0.36890000  0.76350000  0.86240000  1
  C  C205  1  0.40780000  0.35500000  0.09620000  1
  C  C206  1  0.40780000  0.35500000  0.90380000  1
  C  C207  1  0.40780000  0.64500000  0.09620000  1
  C  C208  1  0.40780000  0.64500000  0.90380000  1
  C  C209  1  0.41160000  0.24160000  0.08790000  1
  C  C210  1  0.41160000  0.24160000  0.91210000  1
  C  C211  1  0.41160000  0.75840000  0.08790000  1
  C  C212  1  0.41160000  0.75840000  0.91210000  1
  C  C213  1  0.58840000  0.24160000  0.08790000  1
  C  C214  1  0.58840000  0.24160000  0.91210000  1
  C  C215  1  0.58840000  0.75840000  0.08790000  1
  C  C216  1  0.58840000  0.75840000  0.91210000  1
  C  C217  1  0.59220000  0.35500000  0.09620000  1
  C  C218  1  0.59220000  0.35500000  0.90380000  1
  C  C219  1  0.59220000  0.64500000  0.09620000  1
  C  C220  1  0.59220000  0.64500000  0.90380000  1
  C  C221  1  0.63110000  0.23650000  0.13760000  1
  C  C222  1  0.63110000  0.23650000  0.86240000  1
  C  C223  1  0.63110000  0.76350000  0.13760000  1
  C  C224  1  0.63110000  0.76350000  0.86240000  1
  C  C225  1  0.63490000  0.34990000  0.14580000  1
  C  C226  1  0.63490000  0.34990000  0.85420000  1
  C  C227  1  0.63490000  0.65010000  0.14580000  1
  C  C228  1  0.63490000  0.65010000  0.85420000  1
  C  C229  1  0.64500000  0.09620000  0.40780000  1
  C  C230  1  0.64500000  0.09620000  0.59220000  1
  C  C231  1  0.64500000  0.90380000  0.40780000  1
  C  C232  1  0.64500000  0.90380000  0.59220000  1
  C  C233  1  0.65010000  0.14580000  0.36510000  1
  C  C234  1  0.65010000  0.14580000  0.63490000  1
  C  C235  1  0.65010000  0.85420000  0.36510000  1
  C  C236  1  0.65010000  0.85420000  0.63490000  1
  C  C237  1  0.65440000  0.29070000  0.16650000  1
  C  C238  1  0.65440000  0.29070000  0.83350000  1
  C  C239  1  0.65440000  0.70930000  0.16650000  1
  C  C240  1  0.65440000  0.70930000  0.83350000  1
  C  C241  1  0.68480000  0.22900000  0.25670000  1
  C  C242  1  0.68480000  0.22900000  0.74330000  1
  C  C243  1  0.68480000  0.77100000  0.25670000  1
  C  C244  1  0.68480000  0.77100000  0.74330000  1
  C  C245  1  0.69500000  0.27610000  0.21720000  1
  C  C246  1  0.69500000  0.27610000  0.78280000  1
  C  C247  1  0.69500000  0.72390000  0.21720000  1
  C  C248  1  0.69500000  0.72390000  0.78280000  1
  C  C249  1  0.70930000  0.16650000  0.34560000  1
  C  C250  1  0.70930000  0.16650000  0.65440000  1
  C  C251  1  0.70930000  0.83350000  0.34560000  1
  C  C252  1  0.70930000  0.83350000  0.65440000  1
  C  C253  1  0.72390000  0.21720000  0.30500000  1
  C  C254  1  0.72390000  0.21720000  0.69500000  1
  C  C255  1  0.72390000  0.78280000  0.30500000  1
  C  C256  1  0.72390000  0.78280000  0.69500000  1
  C  C257  1  0.74330000  0.31520000  0.22900000  1
  C  C258  1  0.74330000  0.31520000  0.77100000  1
  C  C259  1  0.74330000  0.68480000  0.22900000  1
  C  C260  1  0.74330000  0.68480000  0.77100000  1
  C  C261  1  0.75840000  0.08790000  0.41160000  1
  C  C262  1  0.75840000  0.08790000  0.58840000  1
  C  C263  1  0.75840000  0.91210000  0.41160000  1
  C  C264  1  0.75840000  0.91210000  0.58840000  1
  C  C265  1  0.76350000  0.13760000  0.36890000  1
  C  C266  1  0.76350000  0.13760000  0.63110000  1
  C  C267  1  0.76350000  0.86240000  0.36890000  1
  C  C268  1  0.76350000  0.86240000  0.63110000  1
  C  C269  1  0.77100000  0.25670000  0.31520000  1
  C  C270  1  0.77100000  0.25670000  0.68480000  1
  C  C271  1  0.77100000  0.74330000  0.31520000  1
  C  C272  1  0.77100000  0.74330000  0.68480000  1
  C  C273  1  0.78280000  0.30500000  0.27610000  1
  C  C274  1  0.78280000  0.30500000  0.72390000  1
  C  C275  1  0.78280000  0.69500000  0.27610000  1
  C  C276  1  0.78280000  0.69500000  0.72390000  1
  C  C277  1  0.83350000  0.34560000  0.29070000  1
  C  C278  1  0.83350000  0.34560000  0.70930000  1
  C  C279  1  0.83350000  0.65440000  0.29070000  1
  C  C280  1  0.83350000  0.65440000  0.70930000  1
  C  C281  1  0.85420000  0.36510000  0.34990000  1
  C  C282  1  0.85420000  0.36510000  0.65010000  1
  C  C283  1  0.85420000  0.63490000  0.34990000  1
  C  C284  1  0.85420000  0.63490000  0.65010000  1
  C  C285  1  0.86240000  0.36890000  0.23650000  1
  C  C286  1  0.86240000  0.36890000  0.76350000  1
  C  C287  1  0.86240000  0.63110000  0.23650000  1
  C  C288  1  0.86240000  0.63110000  0.76350000  1
  C  C289  1  0.90380000  0.40780000  0.35500000  1
  C  C290  1  0.90380000  0.40780000  0.64500000  1
  C  C291  1  0.90380000  0.59220000  0.35500000  1
  C  C292  1  0.90380000  0.59220000  0.64500000  1
  C  C293  1  0.91210000  0.41160000  0.24160000  1
  C  C294  1  0.91210000  0.41160000  0.75840000  1
  C  C295  1  0.91210000  0.58840000  0.24160000  1
  C  C296  1  0.91210000  0.58840000  0.75840000  1
  N  N297  1  0.06720000  0.43110000  0.30080000  1
  N  N298  1  0.06720000  0.43110000  0.69920000  1
  N  N299  1  0.06720000  0.56890000  0.30080000  1
  N  N300  1  0.06720000  0.56890000  0.69920000  1
  N  N301  1  0.30080000  0.06720000  0.43110000  1
  N  N302  1  0.30080000  0.06720000  0.56890000  1
  N  N303  1  0.30080000  0.93280000  0.43110000  1
  N  N304  1  0.30080000  0.93280000  0.56890000  1
  N  N305  1  0.43110000  0.30080000  0.06720000  1
  N  N306  1  0.43110000  0.30080000  0.93280000  1
  N  N307  1  0.43110000  0.69920000  0.06720000  1
  N  N308  1  0.43110000  0.69920000  0.93280000  1
  N  N309  1  0.56890000  0.30080000  0.06720000  1
  N  N310  1  0.56890000  0.30080000  0.93280000  1
  N  N311  1  0.56890000  0.69920000  0.06720000  1
  N  N312  1  0.56890000  0.69920000  0.93280000  1
  N  N313  1  0.69920000  0.06720000  0.43110000  1
  N  N314  1  0.69920000  0.06720000  0.56890000  1
  N  N315  1  0.69920000  0.93280000  0.43110000  1
  N  N316  1  0.69920000  0.93280000  0.56890000  1
  N  N317  1  0.93280000  0.43110000  0.30080000  1
  N  N318  1  0.93280000  0.43110000  0.69920000  1
  N  N319  1  0.93280000  0.56890000  0.30080000  1
  N  N320  1  0.93280000  0.56890000  0.69920000  1
  F  F321  1  0.00000000  0.50000000  0.40980000  1
  F  F322  1  0.00000000  0.50000000  0.59020000  1
  F  F323  1  0.07770000  0.45920000  0.50000000  1
  F  F324  1  0.07770000  0.54080000  0.50000000  1
  F  F325  1  0.40980000  0.00000000  0.50000000  1
  F  F326  1  0.45920000  0.50000000  0.07770000  1
  F  F327  1  0.45920000  0.50000000  0.92230000  1
  F  F328  1  0.50000000  0.07770000  0.45920000  1
  F  F329  1  0.50000000  0.07770000  0.54080000  1
  F  F330  1  0.50000000  0.40980000  0.00000000  1
  F  F331  1  0.50000000  0.59020000  0.00000000  1
  F  F332  1  0.50000000  0.92230000  0.45920000  1
  F  F333  1  0.50000000  0.92230000  0.54080000  1
  F  F334  1  0.54080000  0.50000000  0.07770000  1
  F  F335  1  0.54080000  0.50000000  0.92230000  1
  F  F336  1  0.59020000  0.00000000  0.50000000  1
  F  F337  1  0.92230000  0.45920000  0.50000000  1
  F  F338  1  0.92230000  0.54080000  0.50000000  1
