# generated using pymatgen
data_K2Tb2H12C32O19
_symmetry_space_group_name_H-M   'P 1'
_cell_length_a   11.02520000
_cell_length_b   12.60450000
_cell_length_c   16.00800000
_cell_angle_alpha   100.23700000
_cell_angle_beta   106.07000000
_cell_angle_gamma   95.72500000
_symmetry_Int_Tables_number   1
_chemical_formula_structural   K2Tb2H12C32O19
_chemical_formula_sum   'K4 Tb4 H24 C64 O38'
_cell_volume   2077.36926046
_cell_formula_units_Z   2
loop_
 _symmetry_equiv_pos_site_id
 _symmetry_equiv_pos_as_xyz
  1  'x, y, z'
loop_
 _atom_site_type_symbol
 _atom_site_label
 _atom_site_symmetry_multiplicity
 _atom_site_fract_x
 _atom_site_fract_y
 _atom_site_fract_z
 _atom_site_occupancy
  K  K0  1  0.21830000  0.97632000  0.55479000  1
  K  K1  1  0.26803000  0.49064000  0.94310000  1
  K  K2  1  0.73197000  0.50936000  0.05690000  1
  K  K3  1  0.78170000  0.02368000  0.44521000  1
  Tb  Tb4  1  0.05916000  0.24040000  0.62800000  1
  Tb  Tb5  1  0.49752000  0.74090000  0.11725000  1
  Tb  Tb6  1  0.50248000  0.25910000  0.88275000  1
  Tb  Tb7  1  0.94084000  0.75960000  0.37200000  1
  H  H8  1  0.06470000  0.74120000  0.16410000  1
  H  H9  1  0.06530000  0.98310000  0.19240000  1
  H  H10  1  0.08770000  0.82320000  0.93610000  1
  H  H11  1  0.11210000  0.33720000  0.35020000  1
  H  H12  1  0.14150000  0.30570000  0.21090000  1
  H  H13  1  0.23520000  0.16050000  0.99580000  1
  H  H14  1  0.31730000  0.30800000  0.50780000  1
  H  H15  1  0.34950000  0.65020000  0.54630000  1
  H  H16  1  0.36240000  0.74530000  0.32120000  1
  H  H17  1  0.43960000  0.19380000  0.30670000  1
  H  H18  1  0.45070000  0.51330000  0.30930000  1
  H  H19  1  0.46460000  0.16470000  0.16700000  1
  H  H20  1  0.53540000  0.83530000  0.83300000  1
  H  H21  1  0.54930000  0.48670000  0.69070000  1
  H  H22  1  0.56040000  0.80620000  0.69330000  1
  H  H23  1  0.63760000  0.25470000  0.67880000  1
  H  H24  1  0.65050000  0.34980000  0.45370000  1
  H  H25  1  0.68270000  0.69200000  0.49220000  1
  H  H26  1  0.76480000  0.83950000  0.00420000  1
  H  H27  1  0.85850000  0.69430000  0.78910000  1
  H  H28  1  0.88790000  0.66280000  0.64980000  1
  H  H29  1  0.91230000  0.17680000  0.06390000  1
  H  H30  1  0.93470000  0.01690000  0.80760000  1
  H  H31  1  0.93530000  0.25880000  0.83590000  1
  C  C32  1  0.02060000  0.97080000  0.34030000  1
  C  C33  1  0.02730000  0.76430000  0.11230000  1
  C  C34  1  0.04190000  0.81470000  0.97600000  1
  C  C35  1  0.05740000  0.07290000  0.30920000  1
  C  C36  1  0.06100000  0.20330000  0.44950000  1
  C  C37  1  0.07180000  0.17900000  0.35690000  1
  C  C38  1  0.07540000  0.05410000  0.22470000  1
  C  C39  1  0.08120000  0.16180000  0.04010000  1
  C  C40  1  0.09630000  0.77810000  0.05340000  1
  C  C41  1  0.09780000  0.21480000  0.90650000  1
  C  C42  1  0.10320000  0.26590000  0.31880000  1
  C  C43  1  0.10820000  0.14130000  0.18990000  1
  C  C44  1  0.12110000  0.24750000  0.23560000  1
  C  C45  1  0.15220000  0.17620000  0.98340000  1
  C  C46  1  0.17700000  0.23450000  0.84620000  1
  C  C47  1  0.19380000  0.70680000  0.40830000  1
  C  C48  1  0.23210000  0.75690000  0.07470000  1
  C  C49  1  0.33420000  0.69840000  0.42970000  1
  C  C50  1  0.38710000  0.23610000  0.65760000  1
  C  C51  1  0.39520000  0.66720000  0.50820000  1
  C  C52  1  0.40360000  0.72660000  0.37440000  1
  C  C53  1  0.40490000  0.30670000  0.52390000  1
  C  C54  1  0.44070000  0.35670000  0.32030000  1
  C  C55  1  0.44630000  0.25180000  0.27870000  1
  C  C56  1  0.45320000  0.44310000  0.28020000  1
  C  C57  1  0.46190000  0.23510000  0.19540000  1
  C  C58  1  0.46540000  0.27320000  0.60120000  1
  C  C59  1  0.46980000  0.42560000  0.19530000  1
  C  C60  1  0.47380000  0.32090000  0.15240000  1
  C  C61  1  0.47660000  0.33810000  0.47150000  1
  C  C62  1  0.48600000  0.29770000  0.06020000  1
  C  C63  1  0.48670000  0.52690000  0.15930000  1
  C  C64  1  0.51330000  0.47310000  0.84070000  1
  C  C65  1  0.51400000  0.70230000  0.93980000  1
  C  C66  1  0.52340000  0.66190000  0.52850000  1
  C  C67  1  0.52620000  0.67910000  0.84760000  1
  C  C68  1  0.53020000  0.57440000  0.80470000  1
  C  C69  1  0.53460000  0.72680000  0.39880000  1
  C  C70  1  0.53810000  0.76490000  0.80460000  1
  C  C71  1  0.54680000  0.55690000  0.71980000  1
  C  C72  1  0.55370000  0.74820000  0.72130000  1
  C  C73  1  0.55930000  0.64330000  0.67970000  1
  C  C74  1  0.59510000  0.69330000  0.47610000  1
  C  C75  1  0.59640000  0.27340000  0.62560000  1
  C  C76  1  0.60480000  0.33280000  0.49180000  1
  C  C77  1  0.61290000  0.76390000  0.34240000  1
  C  C78  1  0.66580000  0.30160000  0.57030000  1
  C  C79  1  0.76790000  0.24310000  0.92530000  1
  C  C80  1  0.80620000  0.29320000  0.59170000  1
  C  C81  1  0.82300000  0.76550000  0.15380000  1
  C  C82  1  0.84780000  0.82380000  0.01660000  1
  C  C83  1  0.87890000  0.75250000  0.76440000  1
  C  C84  1  0.89180000  0.85870000  0.81010000  1
  C  C85  1  0.89680000  0.73410000  0.68120000  1
  C  C86  1  0.90220000  0.78520000  0.09350000  1
  C  C87  1  0.90370000  0.22190000  0.94660000  1
  C  C88  1  0.91880000  0.83820000  0.95990000  1
  C  C89  1  0.92460000  0.94590000  0.77530000  1
  C  C90  1  0.92820000  0.82100000  0.64310000  1
  C  C91  1  0.93900000  0.79670000  0.55050000  1
  C  C92  1  0.94260000  0.92710000  0.69080000  1
  C  C93  1  0.95810000  0.18530000  0.02400000  1
  C  C94  1  0.97270000  0.23570000  0.88770000  1
  C  C95  1  0.97940000  0.02920000  0.65970000  1
  O  O96  1  0.03800000  0.12250000  0.48460000  1
  O  O97  1  0.05800000  0.49200000  0.00000000  1
  O  O98  1  0.07880000  0.29940000  0.49190000  1
  O  O99  1  0.09610000  0.06200000  0.67080000  1
  O  O100  1  0.10590000  0.91660000  0.37070000  1
  O  O101  1  0.12190000  0.67930000  0.32930000  1
  O  O102  1  0.12700000  0.27570000  0.78130000  1
  O  O103  1  0.13780000  0.11550000  0.11090000  1
  O  O104  1  0.15110000  0.74440000  0.47080000  1
  O  O105  1  0.26900000  0.22380000  0.62780000  1
  O  O106  1  0.27810000  0.72250000  0.01280000  1
  O  O107  1  0.28780000  0.21110000  0.86530000  1
  O  O108  1  0.29930000  0.77570000  0.15480000  1
  O  O109  1  0.38690000  0.56430000  0.12300000  1
  O  O110  1  0.40350000  0.42340000  0.82960000  1
  O  O111  1  0.41200000  0.38030000  0.40000000  1
  O  O112  1  0.44700000  0.21730000  0.73090000  1
  O  O113  1  0.48690000  0.37560000  0.01880000  1
  O  O114  1  0.49300000  0.20280000  0.02380000  1
  O  O115  1  0.50700000  0.79720000  0.97620000  1
  O  O116  1  0.51310000  0.62440000  0.98120000  1
  O  O117  1  0.55300000  0.78270000  0.26910000  1
  O  O118  1  0.58800000  0.61970000  0.60000000  1
  O  O119  1  0.59650000  0.57660000  0.17040000  1
  O  O120  1  0.61310000  0.43570000  0.87700000  1
  O  O121  1  0.70070000  0.22430000  0.84520000  1
  O  O122  1  0.71220000  0.78890000  0.13470000  1
  O  O123  1  0.72190000  0.27750000  0.98720000  1
  O  O124  1  0.73100000  0.77620000  0.37220000  1
  O  O125  1  0.84890000  0.25560000  0.52920000  1
  O  O126  1  0.86220000  0.88450000  0.88910000  1
  O  O127  1  0.87300000  0.72430000  0.21870000  1
  O  O128  1  0.87810000  0.32070000  0.67070000  1
  O  O129  1  0.89410000  0.08340000  0.62930000  1
  O  O130  1  0.90390000  0.93800000  0.32920000  1
  O  O131  1  0.92120000  0.70060000  0.50810000  1
  O  O132  1  0.94200000  0.50800000  0.00000000  1
  O  O133  1  0.96200000  0.87750000  0.51540000  1
