# generated using pymatgen
data_Mn2CoH24C42(SO6)3
_symmetry_space_group_name_H-M   'P 1'
_cell_length_a   16.70940000
_cell_length_b   17.19360000
_cell_length_c   20.28570000
_cell_angle_alpha   90.00000000
_cell_angle_beta   90.00000000
_cell_angle_gamma   99.17800000
_symmetry_Int_Tables_number   1
_chemical_formula_structural   Mn2CoH24C42(SO6)3
_chemical_formula_sum   'Mn8 Co4 H96 C168 S12 O72'
_cell_volume   5753.36273474
_cell_formula_units_Z   4
loop_
 _symmetry_equiv_pos_site_id
 _symmetry_equiv_pos_as_xyz
  1  'x, y, z'
loop_
 _atom_site_type_symbol
 _atom_site_label
 _atom_site_symmetry_multiplicity
 _atom_site_fract_x
 _atom_site_fract_y
 _atom_site_fract_z
 _atom_site_occupancy
  Mn  Mn0  1  0.96300000  0.74579000  0.66767000  1
  Mn  Mn1  1  0.85591000  0.55371000  0.62548000  1
  Mn  Mn2  1  0.64409000  0.94629000  0.12548000  1
  Mn  Mn3  1  0.53700000  0.75421000  0.16767000  1
  Mn  Mn4  1  0.46300000  0.24579000  0.83233000  1
  Mn  Mn5  1  0.35591000  0.05371000  0.87452000  1
  Mn  Mn6  1  0.14409000  0.44629000  0.37452000  1
  Mn  Mn7  1  0.03700000  0.25421000  0.33233000  1
  Co  Co8  1  0.91355000  0.05860000  0.35163000  1
  Co  Co9  1  0.58645000  0.44140000  0.85163000  1
  Co  Co10  1  0.41355000  0.55860000  0.14837000  1
  Co  Co11  1  0.08645000  0.94140000  0.64837000  1
  H  H12  1  0.99280000  0.77720000  0.50460000  1
  H  H13  1  0.99100000  0.43490000  0.56550000  1
  H  H14  1  0.98770000  0.74250000  0.96190000  1
  H  H15  1  0.98650000  0.76160000  0.84850000  1
  H  H16  1  0.98150000  0.89930000  0.25130000  1
  H  H17  1  0.97710000  0.61050000  0.12750000  1
  H  H18  1  0.97060000  0.43970000  0.77850000  1
  H  H19  1  0.96820000  0.16920000  0.59790000  1
  H  H20  1  0.95950000  0.38400000  0.66900000  1
  H  H21  1  0.94100000  0.34320000  0.16040000  1
  H  H22  1  0.90920000  0.31350000  0.94210000  1
  H  H23  1  0.90490000  0.66750000  0.24790000  1
  H  H24  1  0.89040000  0.39210000  0.06620000  1
  H  H25  1  0.88840000  0.03160000  0.53880000  1
  H  H26  1  0.88410000  0.04170000  0.01590000  1
  H  H27  1  0.88390000  0.02410000  0.12880000  1
  H  H28  1  0.85430000  0.91900000  0.22010000  1
  H  H29  1  0.83130000  0.66620000  0.06770000  1
  H  H30  1  0.82200000  0.34560000  0.36680000  1
  H  H31  1  0.79730000  0.81480000  0.59830000  1
  H  H32  1  0.79560000  0.10320000  0.88300000  1
  H  H33  1  0.79400000  0.36510000  0.92190000  1
  H  H34  1  0.77580000  0.68740000  0.22090000  1
  H  H35  1  0.76050000  0.05010000  0.50500000  1
  H  H36  1  0.73950000  0.44990000  0.00500000  1
  H  H37  1  0.72420000  0.81260000  0.72090000  1
  H  H38  1  0.70600000  0.13490000  0.42190000  1
  H  H39  1  0.70440000  0.39680000  0.38300000  1
  H  H40  1  0.70270000  0.68520000  0.09830000  1
  H  H41  1  0.67800000  0.15440000  0.86680000  1
  H  H42  1  0.66870000  0.83380000  0.56770000  1
  H  H43  1  0.64570000  0.58100000  0.72010000  1
  H  H44  1  0.61610000  0.47590000  0.62880000  1
  H  H45  1  0.61590000  0.45830000  0.51590000  1
  H  H46  1  0.61160000  0.46840000  0.03880000  1
  H  H47  1  0.60960000  0.10790000  0.56620000  1
  H  H48  1  0.59510000  0.83250000  0.74790000  1
  H  H49  1  0.59080000  0.18650000  0.44210000  1
  H  H50  1  0.55900000  0.15680000  0.66040000  1
  H  H51  1  0.54050000  0.11600000  0.16900000  1
  H  H52  1  0.53180000  0.33080000  0.09790000  1
  H  H53  1  0.52940000  0.06030000  0.27850000  1
  H  H54  1  0.52290000  0.88950000  0.62750000  1
  H  H55  1  0.51850000  0.60070000  0.75130000  1
  H  H56  1  0.51350000  0.73840000  0.34850000  1
  H  H57  1  0.51230000  0.75750000  0.46190000  1
  H  H58  1  0.50900000  0.06510000  0.06550000  1
  H  H59  1  0.50720000  0.72280000  0.00460000  1
  H  H60  1  0.49280000  0.27720000  0.99540000  1
  H  H61  1  0.49100000  0.93490000  0.93450000  1
  H  H62  1  0.48770000  0.24250000  0.53810000  1
  H  H63  1  0.48650000  0.26160000  0.65150000  1
  H  H64  1  0.48150000  0.39930000  0.24870000  1
  H  H65  1  0.47710000  0.11050000  0.37250000  1
  H  H66  1  0.47060000  0.93970000  0.72150000  1
  H  H67  1  0.46820000  0.66920000  0.90210000  1
  H  H68  1  0.45950000  0.88400000  0.83100000  1
  H  H69  1  0.44100000  0.84320000  0.33960000  1
  H  H70  1  0.40920000  0.81350000  0.55790000  1
  H  H71  1  0.40490000  0.16750000  0.25210000  1
  H  H72  1  0.39040000  0.89210000  0.43380000  1
  H  H73  1  0.38840000  0.53160000  0.96120000  1
  H  H74  1  0.38410000  0.54170000  0.48410000  1
  H  H75  1  0.38390000  0.52410000  0.37120000  1
  H  H76  1  0.35430000  0.41900000  0.27990000  1
  H  H77  1  0.33130000  0.16620000  0.43230000  1
  H  H78  1  0.32200000  0.84560000  0.13320000  1
  H  H79  1  0.29730000  0.31480000  0.90170000  1
  H  H80  1  0.29560000  0.60320000  0.61700000  1
  H  H81  1  0.29400000  0.86510000  0.57810000  1
  H  H82  1  0.27580000  0.18740000  0.27910000  1
  H  H83  1  0.26050000  0.55010000  0.99500000  1
  H  H84  1  0.23950000  0.94990000  0.49500000  1
  H  H85  1  0.22420000  0.31260000  0.77910000  1
  H  H86  1  0.20600000  0.63490000  0.07810000  1
  H  H87  1  0.20440000  0.89680000  0.11700000  1
  H  H88  1  0.20270000  0.18520000  0.40170000  1
  H  H89  1  0.17800000  0.65440000  0.63320000  1
  H  H90  1  0.16870000  0.33380000  0.93230000  1
  H  H91  1  0.14570000  0.08100000  0.77990000  1
  H  H92  1  0.11610000  0.97590000  0.87120000  1
  H  H93  1  0.11590000  0.95830000  0.98410000  1
  H  H94  1  0.11160000  0.96840000  0.46120000  1
  H  H95  1  0.10960000  0.60790000  0.93380000  1
  H  H96  1  0.09510000  0.33250000  0.75210000  1
  H  H97  1  0.09080000  0.68650000  0.05790000  1
  H  H98  1  0.05900000  0.65680000  0.83960000  1
  H  H99  1  0.04050000  0.61600000  0.33100000  1
  H  H100  1  0.03180000  0.83080000  0.40210000  1
  H  H101  1  0.02940000  0.56030000  0.22150000  1
  H  H102  1  0.02290000  0.38950000  0.87250000  1
  H  H103  1  0.01850000  0.10070000  0.74870000  1
  H  H104  1  0.01350000  0.23840000  0.15150000  1
  H  H105  1  0.01230000  0.25750000  0.03810000  1
  H  H106  1  0.00900000  0.56510000  0.43450000  1
  H  H107  1  0.00720000  0.22280000  0.49540000  1
  C  C108  1  0.99870000  0.47360000  0.80940000  1
  C  C109  1  0.99820000  0.25560000  0.53020000  1
  C  C110  1  0.99260000  0.66550000  0.47900000  1
  C  C111  1  0.99050000  0.44740000  0.20030000  1
  C  C112  1  0.98940000  0.38120000  0.57270000  1
  C  C113  1  0.98820000  0.19830000  0.12430000  1
  C  C114  1  0.98780000  0.21000000  0.05630000  1
  C  C115  1  0.97530000  0.22340000  0.59180000  1
  C  C116  1  0.97470000  0.58540000  0.74010000  1
  C  C117  1  0.97040000  0.55640000  0.13420000  1
  C  C118  1  0.96900000  0.35100000  0.63450000  1
  C  C119  1  0.96300000  0.27230000  0.64400000  1
  C  C120  1  0.95580000  0.62790000  0.54030000  1
  C  C121  1  0.95550000  0.11810000  0.22550000  1
  C  C122  1  0.95480000  0.78130000  0.25230000  1
  C  C123  1  0.95180000  0.12800000  0.15170000  1
  C  C124  1  0.95050000  0.15030000  0.01640000  1
  C  C125  1  0.94850000  0.39730000  0.15340000  1
  C  C126  1  0.94050000  0.85660000  0.24450000  1
  C  C127  1  0.93650000  0.91090000  0.59490000  1
  C  C128  1  0.92950000  0.50540000  0.08780000  1
  C  C129  1  0.91820000  0.42610000  0.09720000  1
  C  C130  1  0.91130000  0.07050000  0.11070000  1
  C  C131  1  0.91090000  0.08100000  0.04310000  1
  C  C132  1  0.89400000  0.71850000  0.24290000  1
  C  C133  1  0.86450000  0.86790000  0.22650000  1
  C  C134  1  0.86290000  0.28160000  0.92670000  1
  C  C135  1  0.86280000  0.20370000  0.91500000  1
  C  C136  1  0.85520000  0.92230000  0.57200000  1
  C  C137  1  0.85170000  0.20400000  0.38070000  1
  C  C138  1  0.84430000  0.99160000  0.54440000  1
  C  C139  1  0.81720000  0.73010000  0.22620000  1
  C  C140  1  0.80230000  0.80580000  0.21740000  1
  C  C141  1  0.79590000  0.55640000  0.03440000  1
  C  C142  1  0.79430000  0.31160000  0.91540000  1
  C  C143  1  0.79430000  0.15610000  0.89180000  1
  C  C144  1  0.78940000  0.86270000  0.58010000  1
  C  C145  1  0.78700000  0.62660000  0.06170000  1
  C  C146  1  0.77990000  0.68010000  0.69720000  1
  C  C147  1  0.77590000  0.23610000  0.39410000  1
  C  C148  1  0.77540000  0.31350000  0.38180000  1
  C  C149  1  0.76830000  0.00300000  0.52460000  1
  C  C150  1  0.73170000  0.49700000  0.02460000  1
  C  C151  1  0.72460000  0.18650000  0.88180000  1
  C  C152  1  0.72410000  0.26390000  0.89410000  1
  C  C153  1  0.72010000  0.81990000  0.19720000  1
  C  C154  1  0.71300000  0.87340000  0.56170000  1
  C  C155  1  0.71060000  0.63730000  0.08010000  1
  C  C156  1  0.70570000  0.18840000  0.41540000  1
  C  C157  1  0.70570000  0.34390000  0.39180000  1
  C  C158  1  0.70410000  0.94360000  0.53440000  1
  C  C159  1  0.69770000  0.69420000  0.71740000  1
  C  C160  1  0.68280000  0.76990000  0.72620000  1
  C  C161  1  0.65570000  0.50840000  0.04440000  1
  C  C162  1  0.64830000  0.29600000  0.88070000  1
  C  C163  1  0.64480000  0.57770000  0.07200000  1
  C  C164  1  0.63720000  0.29630000  0.41500000  1
  C  C165  1  0.63710000  0.21840000  0.42670000  1
  C  C166  1  0.63550000  0.63210000  0.72650000  1
  C  C167  1  0.60600000  0.78150000  0.74290000  1
  C  C168  1  0.58910000  0.41900000  0.54310000  1
  C  C169  1  0.58870000  0.42950000  0.61070000  1
  C  C170  1  0.58180000  0.07390000  0.59720000  1
  C  C171  1  0.57050000  0.99460000  0.58780000  1
  C  C172  1  0.56350000  0.58910000  0.09490000  1
  C  C173  1  0.55950000  0.64340000  0.74450000  1
  C  C174  1  0.55150000  0.10270000  0.65340000  1
  C  C175  1  0.54950000  0.34970000  0.51640000  1
  C  C176  1  0.54820000  0.37200000  0.65170000  1
  C  C177  1  0.54520000  0.71870000  0.75230000  1
  C  C178  1  0.54450000  0.38190000  0.72550000  1
  C  C179  1  0.54420000  0.87210000  0.04030000  1
  C  C180  1  0.53700000  0.22770000  0.14400000  1
  C  C181  1  0.53100000  0.14900000  0.13450000  1
  C  C182  1  0.52960000  0.94360000  0.63420000  1
  C  C183  1  0.52530000  0.91460000  0.24010000  1
  C  C184  1  0.52470000  0.27660000  0.09180000  1
  C  C185  1  0.51220000  0.29000000  0.55630000  1
  C  C186  1  0.51180000  0.30170000  0.62430000  1
  C  C187  1  0.51060000  0.11880000  0.07270000  1
  C  C188  1  0.50950000  0.05260000  0.70030000  1
  C  C189  1  0.50740000  0.83450000  0.97900000  1
  C  C190  1  0.50180000  0.24440000  0.03020000  1
  C  C191  1  0.50130000  0.02640000  0.30940000  1
  C  C192  1  0.49870000  0.97360000  0.69060000  1
  C  C193  1  0.49820000  0.75560000  0.96980000  1
  C  C194  1  0.49260000  0.16550000  0.02100000  1
  C  C195  1  0.49050000  0.94740000  0.29970000  1
  C  C196  1  0.48940000  0.88120000  0.92730000  1
  C  C197  1  0.48820000  0.69830000  0.37570000  1
  C  C198  1  0.48780000  0.71000000  0.44370000  1
  C  C199  1  0.47530000  0.72340000  0.90820000  1
  C  C200  1  0.47470000  0.08540000  0.75990000  1
  C  C201  1  0.47040000  0.05640000  0.36580000  1
  C  C202  1  0.46900000  0.85100000  0.86550000  1
  C  C203  1  0.46300000  0.77230000  0.85600000  1
  C  C204  1  0.45580000  0.12790000  0.95970000  1
  C  C205  1  0.45550000  0.61810000  0.27450000  1
  C  C206  1  0.45480000  0.28130000  0.24770000  1
  C  C207  1  0.45180000  0.62800000  0.34830000  1
  C  C208  1  0.45050000  0.65030000  0.48360000  1
  C  C209  1  0.44850000  0.89730000  0.34660000  1
  C  C210  1  0.44050000  0.35660000  0.25550000  1
  C  C211  1  0.43650000  0.41090000  0.90510000  1
  C  C212  1  0.42950000  0.00540000  0.41220000  1
  C  C213  1  0.41820000  0.92610000  0.40280000  1
  C  C214  1  0.41130000  0.57050000  0.38930000  1
  C  C215  1  0.41090000  0.58100000  0.45690000  1
  C  C216  1  0.39400000  0.21850000  0.25710000  1
  C  C217  1  0.36450000  0.36790000  0.27350000  1
  C  C218  1  0.36290000  0.78160000  0.57330000  1
  C  C219  1  0.36280000  0.70370000  0.58500000  1
  C  C220  1  0.35520000  0.42230000  0.92800000  1
  C  C221  1  0.35170000  0.70400000  0.11930000  1
  C  C222  1  0.34430000  0.49160000  0.95560000  1
  C  C223  1  0.31720000  0.23010000  0.27380000  1
  C  C224  1  0.30230000  0.30580000  0.28260000  1
  C  C225  1  0.29590000  0.05640000  0.46560000  1
  C  C226  1  0.29430000  0.65610000  0.60820000  1
  C  C227  1  0.29430000  0.81160000  0.58460000  1
  C  C228  1  0.28940000  0.36270000  0.91990000  1
  C  C229  1  0.28700000  0.12660000  0.43830000  1
  C  C230  1  0.27990000  0.18010000  0.80280000  1
  C  C231  1  0.27590000  0.73610000  0.10590000  1
  C  C232  1  0.27540000  0.81350000  0.11820000  1
  C  C233  1  0.26830000  0.50300000  0.97540000  1
  C  C234  1  0.23170000  0.99700000  0.47540000  1
  C  C235  1  0.22460000  0.68650000  0.61820000  1
  C  C236  1  0.22410000  0.76390000  0.60590000  1
  C  C237  1  0.22010000  0.31990000  0.30280000  1
  C  C238  1  0.21300000  0.37340000  0.93830000  1
  C  C239  1  0.21060000  0.13730000  0.41990000  1
  C  C240  1  0.20570000  0.84390000  0.10820000  1
  C  C241  1  0.20570000  0.68840000  0.08460000  1
  C  C242  1  0.20410000  0.44360000  0.96560000  1
  C  C243  1  0.19770000  0.19420000  0.78260000  1
  C  C244  1  0.18280000  0.26990000  0.77380000  1
  C  C245  1  0.15570000  0.00840000  0.45560000  1
  C  C246  1  0.14830000  0.79600000  0.61930000  1
  C  C247  1  0.14480000  0.07770000  0.42800000  1
  C  C248  1  0.13720000  0.79630000  0.08500000  1
  C  C249  1  0.13710000  0.71840000  0.07330000  1
  C  C250  1  0.13550000  0.13210000  0.77350000  1
  C  C251  1  0.10600000  0.28150000  0.75710000  1
  C  C252  1  0.08910000  0.91900000  0.95690000  1
  C  C253  1  0.08870000  0.92950000  0.88930000  1
  C  C254  1  0.08180000  0.57390000  0.90280000  1
  C  C255  1  0.07050000  0.49460000  0.91220000  1
  C  C256  1  0.06350000  0.08910000  0.40510000  1
  C  C257  1  0.05950000  0.14340000  0.75550000  1
  C  C258  1  0.05150000  0.60270000  0.84660000  1
  C  C259  1  0.04950000  0.84970000  0.98360000  1
  C  C260  1  0.04820000  0.87200000  0.84830000  1
  C  C261  1  0.04520000  0.21870000  0.74770000  1
  C  C262  1  0.04450000  0.88190000  0.77450000  1
  C  C263  1  0.04420000  0.37210000  0.45970000  1
  C  C264  1  0.03700000  0.72770000  0.35600000  1
  C  C265  1  0.03100000  0.64900000  0.36550000  1
  C  C266  1  0.02960000  0.44360000  0.86580000  1
  C  C267  1  0.02530000  0.41460000  0.25990000  1
  C  C268  1  0.02470000  0.77660000  0.40820000  1
  C  C269  1  0.01220000  0.79000000  0.94370000  1
  C  C270  1  0.01180000  0.80170000  0.87570000  1
  C  C271  1  0.01060000  0.61880000  0.42730000  1
  C  C272  1  0.00950000  0.55260000  0.79970000  1
  C  C273  1  0.00740000  0.33450000  0.52100000  1
  C  C274  1  0.00180000  0.74440000  0.46980000  1
  C  C275  1  0.00130000  0.52640000  0.19060000  1
  S  S276  1  0.95122000  0.16511000  0.92926000  1
  S  S277  1  0.94767000  0.23391000  0.72467000  1
  S  S278  1  0.89438000  0.54117000  0.01411000  1
  S  S279  1  0.60562000  0.95883000  0.51411000  1
  S  S280  1  0.55233000  0.26609000  0.22467000  1
  S  S281  1  0.54878000  0.33489000  0.42926000  1
  S  S282  1  0.45122000  0.66511000  0.57074000  1
  S  S283  1  0.44767000  0.73391000  0.77533000  1
  S  S284  1  0.39438000  0.04117000  0.48589000  1
  S  S285  1  0.10562000  0.45883000  0.98589000  1
  S  S286  1  0.05233000  0.76609000  0.27533000  1
  S  S287  1  0.04878000  0.83489000  0.07074000  1
  O  O288  1  0.99980000  0.83190000  0.74220000  1
  O  O289  1  0.98820000  0.97100000  0.60570000  1
  O  O290  1  0.98070000  0.77590000  0.08620000  1
  O  O291  1  0.98040000  0.65760000  0.73690000  1
  O  O292  1  0.94990000  0.84410000  0.60350000  1
  O  O293  1  0.94270000  0.61500000  0.99980000  1
  O  O294  1  0.94230000  0.09050000  0.89810000  1
  O  O295  1  0.94230000  0.55530000  0.54440000  1
  O  O296  1  0.93950000  0.53710000  0.69860000  1
  O  O297  1  0.93010000  0.66930000  0.58450000  1
  O  O298  1  0.92620000  0.29350000  0.76638000  1
  O  O299  1  0.91280000  0.05910000  0.25120000  1
  O  O300  1  0.91260000  0.24860000  0.36230000  1
  O  O301  1  0.89590000  0.16010000  0.72060000  1
  O  O302  1  0.88660000  0.48090000  0.96554000  1
  O  O303  1  0.84610000  0.13130000  0.38870000  1
  O  O304  1  0.83640000  0.73780000  0.69377000  1
  O  O305  1  0.78550000  0.61130000  0.68490000  1
  O  O306  1  0.71450000  0.88870000  0.18490000  1
  O  O307  1  0.66360000  0.76220000  0.19377000  1
  O  O308  1  0.65390000  0.36870000  0.88870000  1
  O  O309  1  0.61340000  0.01910000  0.46554000  1
  O  O310  1  0.60410000  0.33990000  0.22060000  1
  O  O311  1  0.58740000  0.25140000  0.86230000  1
  O  O312  1  0.58720000  0.44090000  0.75120000  1
  O  O313  1  0.57380000  0.20650000  0.26638000  1
  O  O314  1  0.56990000  0.83070000  0.08450000  1
  O  O315  1  0.56050000  0.96290000  0.19860000  1
  O  O316  1  0.55770000  0.40950000  0.39810000  1
  O  O317  1  0.55770000  0.94470000  0.04440000  1
  O  O318  1  0.55730000  0.88500000  0.49980000  1
  O  O319  1  0.55010000  0.65590000  0.10350000  1
  O  O320  1  0.51960000  0.84240000  0.23690000  1
  O  O321  1  0.51930000  0.72410000  0.58620000  1
  O  O322  1  0.51180000  0.52900000  0.10570000  1
  O  O323  1  0.50020000  0.66810000  0.24220000  1
  O  O324  1  0.49980000  0.33190000  0.75780000  1
  O  O325  1  0.48820000  0.47100000  0.89430000  1
  O  O326  1  0.48070000  0.27590000  0.41380000  1
  O  O327  1  0.48040000  0.15760000  0.76310000  1
  O  O328  1  0.44990000  0.34410000  0.89650000  1
  O  O329  1  0.44270000  0.11500000  0.50020000  1
  O  O330  1  0.44230000  0.05530000  0.95560000  1
  O  O331  1  0.44230000  0.59050000  0.60190000  1
  O  O332  1  0.43950000  0.03710000  0.80140000  1
  O  O333  1  0.43010000  0.16930000  0.91550000  1
  O  O334  1  0.42620000  0.79350000  0.73362000  1
  O  O335  1  0.41280000  0.55910000  0.24880000  1
  O  O336  1  0.41260000  0.74860000  0.13770000  1
  O  O337  1  0.39590000  0.66010000  0.77940000  1
  O  O338  1  0.38660000  0.98090000  0.53446000  1
  O  O339  1  0.34610000  0.63130000  0.11130000  1
  O  O340  1  0.33640000  0.23780000  0.80623000  1
  O  O341  1  0.28550000  0.11130000  0.81510000  1
  O  O342  1  0.21450000  0.38870000  0.31510000  1
  O  O343  1  0.16360000  0.26220000  0.30623000  1
  O  O344  1  0.15390000  0.86870000  0.61130000  1
  O  O345  1  0.11340000  0.51910000  0.03446000  1
  O  O346  1  0.10410000  0.83990000  0.27940000  1
  O  O347  1  0.08740000  0.75140000  0.63770000  1
  O  O348  1  0.08720000  0.94090000  0.74880000  1
  O  O349  1  0.07380000  0.70650000  0.23362000  1
  O  O350  1  0.06990000  0.33070000  0.41550000  1
  O  O351  1  0.06050000  0.46290000  0.30140000  1
  O  O352  1  0.05770000  0.44470000  0.45560000  1
  O  O353  1  0.05770000  0.90950000  0.10190000  1
  O  O354  1  0.05730000  0.38500000  0.00020000  1
  O  O355  1  0.05010000  0.15590000  0.39650000  1
  O  O356  1  0.01960000  0.34240000  0.26310000  1
  O  O357  1  0.01930000  0.22410000  0.91380000  1
  O  O358  1  0.01180000  0.02900000  0.39430000  1
  O  O359  1  0.00020000  0.16810000  0.25780000  1
