# generated using pymatgen
data_Mn2H7C16NO10
_symmetry_space_group_name_H-M   'P 1'
_cell_length_a   9.99700000
_cell_length_b   13.14420000
_cell_length_c   16.45800000
_cell_angle_alpha   101.09600000
_cell_angle_beta   92.79600000
_cell_angle_gamma   96.03000000
_symmetry_Int_Tables_number   1
_chemical_formula_structural   Mn2H7C16NO10
_chemical_formula_sum   'Mn8 H28 C64 N4 O40'
_cell_volume   2105.17199015
_cell_formula_units_Z   4
loop_
 _symmetry_equiv_pos_site_id
 _symmetry_equiv_pos_as_xyz
  1  'x, y, z'
loop_
 _atom_site_type_symbol
 _atom_site_label
 _atom_site_symmetry_multiplicity
 _atom_site_fract_x
 _atom_site_fract_y
 _atom_site_fract_z
 _atom_site_occupancy
  Mn  Mn0  1  0.08360000  0.86758000  0.76176000  1
  Mn  Mn1  1  0.11703000  0.25982000  0.73811000  1
  Mn  Mn2  1  0.37677000  0.63014000  0.24243000  1
  Mn  Mn3  1  0.46014000  0.22298000  0.25879000  1
  Mn  Mn4  1  0.53986000  0.77702000  0.74121000  1
  Mn  Mn5  1  0.62323000  0.36986000  0.75757000  1
  Mn  Mn6  1  0.88297000  0.74018000  0.26189000  1
  Mn  Mn7  1  0.91640000  0.13242000  0.23824000  1
  H  H8  1  0.04440000  0.40770000  0.13740000  1
  H  H9  1  0.05530000  0.33560000  0.50720000  1
  H  H10  1  0.06450000  0.35000000  0.99870000  1
  H  H11  1  0.11090000  0.92790000  0.10740000  1
  H  H12  1  0.11380000  0.86730000  0.96120000  1
  H  H13  1  0.13750000  0.09350000  0.99550000  1
  H  H14  1  0.14810000  0.54220000  0.81740000  1
  H  H15  1  0.29990000  0.93910000  0.19200000  1
  H  H16  1  0.31260000  0.61730000  0.04560000  1
  H  H17  1  0.33090000  0.55670000  0.90140000  1
  H  H18  1  0.40540000  0.39900000  0.00660000  1
  H  H19  1  0.45460000  0.84880000  0.54630000  1
  H  H20  1  0.48350000  0.13160000  0.00010000  1
  H  H21  1  0.49700000  0.92000000  0.14750000  1
  H  H22  1  0.50300000  0.08000000  0.85250000  1
  H  H23  1  0.51650000  0.86840000  0.99990000  1
  H  H24  1  0.54540000  0.15120000  0.45370000  1
  H  H25  1  0.59460000  0.60100000  0.99340000  1
  H  H26  1  0.66910000  0.44330000  0.09860000  1
  H  H27  1  0.68740000  0.38270000  0.95440000  1
  H  H28  1  0.70010000  0.06090000  0.80800000  1
  H  H29  1  0.85190000  0.45780000  0.18260000  1
  H  H30  1  0.86250000  0.90650000  0.00450000  1
  H  H31  1  0.88620000  0.13270000  0.03880000  1
  H  H32  1  0.88910000  0.07210000  0.89260000  1
  H  H33  1  0.93550000  0.65000000  0.00130000  1
  H  H34  1  0.94470000  0.66440000  0.49280000  1
  H  H35  1  0.95560000  0.59230000  0.86260000  1
  C  C36  1  0.00180000  0.57500000  0.57320000  1
  C  C37  1  0.01120000  0.34660000  0.34810000  1
  C  C38  1  0.01140000  0.62950000  0.98250000  1
  C  C39  1  0.02470000  0.59550000  0.89920000  1
  C  C40  1  0.03350000  0.40100000  0.50310000  1
  C  C41  1  0.03600000  0.47520000  0.57610000  1
  C  C42  1  0.07920000  0.44950000  0.65850000  1
  C  C43  1  0.10630000  0.67590000  0.13280000  1
  C  C44  1  0.12110000  0.63730000  0.03940000  1
  C  C45  1  0.18080000  0.17860000  0.15020000  1
  C  C46  1  0.18880000  0.10460000  0.84600000  1
  C  C47  1  0.19040000  0.91090000  0.08380000  1
  C  C48  1  0.19520000  0.15470000  0.99930000  1
  C  C49  1  0.19830000  0.88170000  0.99920000  1
  C  C50  1  0.23500000  0.18050000  0.92540000  1
  C  C51  1  0.23660000  0.21700000  0.07620000  1
  C  C52  1  0.24250000  0.61070000  0.01020000  1
  C  C53  1  0.25030000  0.57650000  0.92590000  1
  C  C54  1  0.31700000  0.27390000  0.92780000  1
  C  C55  1  0.31770000  0.31110000  0.07950000  1
  C  C56  1  0.32320000  0.86640000  0.96860000  1
  C  C57  1  0.33860000  0.83200000  0.87620000  1
  C  C58  1  0.35560000  0.33810000  0.00520000  1
  C  C59  1  0.36070000  0.39120000  0.15790000  1
  C  C60  1  0.37100000  0.31450000  0.85370000  1
  C  C61  1  0.37770000  0.81250000  0.38500000  1
  C  C62  1  0.42190000  0.90890000  0.10760000  1
  C  C63  1  0.42440000  0.01640000  0.33130000  1
  C  C64  1  0.43600000  0.88110000  0.02340000  1
  C  C65  1  0.44000000  0.91050000  0.44330000  1
  C  C66  1  0.46660000  0.00600000  0.41830000  1
  C  C67  1  0.47460000  0.90620000  0.52550000  1
  C  C68  1  0.52540000  0.09380000  0.47450000  1
  C  C69  1  0.53340000  0.99400000  0.58170000  1
  C  C70  1  0.56000000  0.08950000  0.55670000  1
  C  C71  1  0.56400000  0.11890000  0.97660000  1
  C  C72  1  0.57560000  0.98360000  0.66870000  1
  C  C73  1  0.57810000  0.09110000  0.89240000  1
  C  C74  1  0.62230000  0.18750000  0.61500000  1
  C  C75  1  0.62900000  0.68550000  0.14630000  1
  C  C76  1  0.63930000  0.60880000  0.84210000  1
  C  C77  1  0.64440000  0.66190000  0.99480000  1
  C  C78  1  0.66140000  0.16800000  0.12380000  1
  C  C79  1  0.67680000  0.13360000  0.03140000  1
  C  C80  1  0.68230000  0.68890000  0.92050000  1
  C  C81  1  0.68300000  0.72610000  0.07220000  1
  C  C82  1  0.74970000  0.42350000  0.07410000  1
  C  C83  1  0.75750000  0.38930000  0.98980000  1
  C  C84  1  0.76340000  0.78300000  0.92380000  1
  C  C85  1  0.76500000  0.81950000  0.07460000  1
  C  C86  1  0.80170000  0.11830000  0.00080000  1
  C  C87  1  0.80480000  0.84530000  0.00070000  1
  C  C88  1  0.80960000  0.08910000  0.91620000  1
  C  C89  1  0.81120000  0.89540000  0.15400000  1
  C  C90  1  0.81920000  0.82140000  0.84980000  1
  C  C91  1  0.87890000  0.36270000  0.96060000  1
  C  C92  1  0.89370000  0.32410000  0.86720000  1
  C  C93  1  0.92080000  0.55050000  0.34150000  1
  C  C94  1  0.96400000  0.52480000  0.42390000  1
  C  C95  1  0.96650000  0.59900000  0.49690000  1
  C  C96  1  0.97530000  0.40450000  0.10080000  1
  C  C97  1  0.98860000  0.37050000  0.01750000  1
  C  C98  1  0.98880000  0.65340000  0.65190000  1
  C  C99  1  0.99820000  0.42500000  0.42680000  1
  N  N100  1  0.14290000  0.56970000  0.87320000  1
  N  N101  1  0.30080000  0.92340000  0.13510000  1
  N  N102  1  0.69920000  0.07660000  0.86490000  1
  N  N103  1  0.85710000  0.43030000  0.12680000  1
  O  O104  1  0.00770000  0.30090000  0.84944000  1
  O  O105  1  0.03820000  0.35970000  0.66877000  1
  O  O106  1  0.05510000  0.16470000  0.14853000  1
  O  O107  1  0.07270000  0.73420000  0.66590000  1
  O  O108  1  0.10580000  0.36510000  0.30462000  1
  O  O109  1  0.13050000  0.01730000  0.85144000  1
  O  O110  1  0.15080000  0.51800000  0.70976000  1
  O  O111  1  0.20700000  0.68170000  0.18077000  1
  O  O112  1  0.21380000  0.13180000  0.77808000  1
  O  O113  1  0.23470000  0.80510000  0.82881000  1
  O  O114  1  0.25900000  0.15750000  0.20498000  1
  O  O115  1  0.25990000  0.77800000  0.39486000  1
  O  O116  1  0.29190000  0.35300000  0.80861000  1
  O  O117  1  0.32100000  0.96110000  0.29672000  1
  O  O118  1  0.33930000  0.48200000  0.15476000  1
  O  O119  1  0.41650000  0.36540000  0.21916000  1
  O  O120  1  0.45160000  0.76960000  0.33160000  1
  O  O121  1  0.45660000  0.83010000  0.85595000  1
  O  O122  1  0.49420000  0.31350000  0.84647000  1
  O  O123  1  0.49770000  0.08070000  0.29883000  1
  O  O124  1  0.50230000  0.91930000  0.70117000  1
  O  O125  1  0.50580000  0.68650000  0.15353000  1
  O  O126  1  0.54340000  0.16990000  0.14405000  1
  O  O127  1  0.54840000  0.23040000  0.66840000  1
  O  O128  1  0.58350000  0.63460000  0.78084000  1
  O  O129  1  0.66070000  0.51800000  0.84524000  1
  O  O130  1  0.67900000  0.03890000  0.70328000  1
  O  O131  1  0.70810000  0.64700000  0.19139000  1
  O  O132  1  0.74010000  0.22200000  0.60514000  1
  O  O133  1  0.74100000  0.84250000  0.79502000  1
  O  O134  1  0.76530000  0.19490000  0.17119000  1
  O  O135  1  0.78620000  0.86820000  0.22192000  1
  O  O136  1  0.79300000  0.31830000  0.81923000  1
  O  O137  1  0.84920000  0.48200000  0.29024000  1
  O  O138  1  0.86950000  0.98270000  0.14856000  1
  O  O139  1  0.89420000  0.63490000  0.69538000  1
  O  O140  1  0.92730000  0.26580000  0.33410000  1
  O  O141  1  0.94490000  0.83530000  0.85147000  1
  O  O142  1  0.96180000  0.64030000  0.33123000  1
  O  O143  1  0.99230000  0.69910000  0.15056000  1
