# generated using pymatgen
data_CeH12C21(NO2)3
_symmetry_space_group_name_H-M   'P 1'
_cell_length_a   16.10350000
_cell_length_b   16.10350000
_cell_length_c   28.12800000
_cell_angle_alpha   79.39080000
_cell_angle_beta   79.39080000
_cell_angle_gamma   63.17720000
_symmetry_Int_Tables_number   1
_chemical_formula_structural   CeH12C21(NO2)3
_chemical_formula_sum   'Ce4 H48 C84 N12 O24'
_cell_volume   6355.55873287
_cell_formula_units_Z   4
loop_
 _symmetry_equiv_pos_site_id
 _symmetry_equiv_pos_as_xyz
  1  'x, y, z'
loop_
 _atom_site_type_symbol
 _atom_site_label
 _atom_site_symmetry_multiplicity
 _atom_site_fract_x
 _atom_site_fract_y
 _atom_site_fract_z
 _atom_site_occupancy
  Ce  Ce0  1  0.46878000  0.93338000  0.45390000  1
  Ce  Ce1  1  0.06662000  0.53122000  0.04610000  1
  Ce  Ce2  1  0.93338000  0.46878000  0.95390000  1
  Ce  Ce3  1  0.53122000  0.06662000  0.54610000  1
  H  H4  1  0.64640000  0.94920000  0.04260000  1
  H  H5  1  0.36620000  0.93560000  0.29660000  1
  H  H6  1  0.43040000  0.93140000  0.67050000  1
  H  H7  1  0.29310000  0.89430000  0.24650000  1
  H  H8  1  0.36620000  0.86600000  0.74220000  1
  H  H9  1  0.19380000  0.84220000  0.13350000  1
  H  H10  1  0.23970000  0.83890000  0.41430000  1
  H  H11  1  0.32530000  0.82770000  0.59000000  1
  H  H12  1  0.78830000  0.82390000  0.05600000  1
  H  H13  1  0.58850000  0.80750000  0.96090000  1
  H  H14  1  0.15780000  0.80620000  0.36650000  1
  H  H15  1  0.82390000  0.78830000  0.55600000  1
  H  H16  1  0.26230000  0.76570000  0.65910000  1
  H  H17  1  0.16110000  0.76030000  0.08570000  1
  H  H18  1  0.23430000  0.73770000  0.84090000  1
  H  H19  1  0.68240000  0.73220000  0.46880000  1
  H  H20  1  0.10570000  0.70690000  0.25350000  1
  H  H21  1  0.73220000  0.68240000  0.96880000  1
  H  H22  1  0.17230000  0.67470000  0.91000000  1
  H  H23  1  0.94920000  0.64640000  0.54260000  1
  H  H24  1  0.13400000  0.63380000  0.75780000  1
  H  H25  1  0.06440000  0.63380000  0.20340000  1
  H  H26  1  0.80750000  0.58850000  0.46090000  1
  H  H27  1  0.06860000  0.56960000  0.82950000  1
  H  H28  1  0.93140000  0.43040000  0.17050000  1
  H  H29  1  0.19250000  0.41150000  0.53910000  1
  H  H30  1  0.93560000  0.36620000  0.79660000  1
  H  H31  1  0.86600000  0.36620000  0.24220000  1
  H  H32  1  0.05080000  0.35360000  0.45740000  1
  H  H33  1  0.82770000  0.32530000  0.09000000  1
  H  H34  1  0.26780000  0.31760000  0.03120000  1
  H  H35  1  0.89430000  0.29310000  0.74650000  1
  H  H36  1  0.31760000  0.26780000  0.53120000  1
  H  H37  1  0.76570000  0.26230000  0.15910000  1
  H  H38  1  0.83890000  0.23970000  0.91430000  1
  H  H39  1  0.73770000  0.23430000  0.34090000  1
  H  H40  1  0.17610000  0.21170000  0.44400000  1
  H  H41  1  0.84220000  0.19380000  0.63350000  1
  H  H42  1  0.41150000  0.19250000  0.03910000  1
  H  H43  1  0.21170000  0.17610000  0.94400000  1
  H  H44  1  0.67470000  0.17230000  0.41000000  1
  H  H45  1  0.76030000  0.16110000  0.58570000  1
  H  H46  1  0.80620000  0.15780000  0.86650000  1
  H  H47  1  0.63380000  0.13400000  0.25780000  1
  H  H48  1  0.70690000  0.10570000  0.75350000  1
  H  H49  1  0.56960000  0.06860000  0.32950000  1
  H  H50  1  0.63380000  0.06440000  0.70340000  1
  H  H51  1  0.35360000  0.05080000  0.95740000  1
  C  C52  1  0.42105000  0.92385000  0.57698000  1
  C  C53  1  0.35463000  0.92343000  0.39004000  1
  C  C54  1  0.32181000  0.91341000  0.31007000  1
  C  C55  1  0.29530000  0.90710000  0.36111000  1
  C  C56  1  0.39623000  0.89883000  0.66853000  1
  C  C57  1  0.66459000  0.89479000  0.02854000  1
  C  C58  1  0.60218000  0.88958000  0.99911000  1
  C  C59  1  0.38140000  0.88680000  0.62306000  1
  C  C60  1  0.28023000  0.88563000  0.28022000  1
  C  C61  1  0.66490000  0.87070000  0.51912000  1
  C  C62  1  0.35806000  0.86006000  0.71131000  1
  C  C63  1  0.24414000  0.85654000  0.38083000  1
  C  C64  1  0.22000000  0.84540000  0.30095000  1
  C  C65  1  0.33281000  0.83661000  0.62041000  1
  C  C66  1  0.19962000  0.83142000  0.35245000  1
  C  C67  1  0.74972000  0.82112000  0.03603000  1
  C  C68  1  0.30756000  0.81276000  0.70473000  1
  C  C69  1  0.62928000  0.81128000  0.97901000  1
  C  C70  1  0.16858000  0.80038000  0.14755000  1
  C  C71  1  0.29532000  0.79932000  0.66129000  1
  C  C72  1  0.15460000  0.78000000  0.19905000  1
  C  C73  1  0.74092000  0.77732000  0.51256000  1
  C  C74  1  0.14346000  0.75586000  0.11917000  1
  C  C75  1  0.82112000  0.74972000  0.53603000  1
  C  C76  1  0.77732000  0.74092000  0.01256000  1
  C  C77  1  0.71502000  0.73562000  0.98379000  1
  C  C78  1  0.11437000  0.71977000  0.21978000  1
  C  C79  1  0.73562000  0.71502000  0.48379000  1
  C  C80  1  0.09290000  0.70470000  0.13889000  1
  C  C81  1  0.20068000  0.70468000  0.83871000  1
  C  C82  1  0.18724000  0.69244000  0.79527000  1
  C  C83  1  0.08659000  0.67819000  0.18993000  1
  C  C84  1  0.16339000  0.66719000  0.87959000  1
  C  C85  1  0.87070000  0.66490000  0.01912000  1
  C  C86  1  0.89479000  0.66459000  0.52854000  1
  C  C87  1  0.07657000  0.64537000  0.10996000  1
  C  C88  1  0.13994000  0.64194000  0.78869000  1
  C  C89  1  0.81128000  0.62928000  0.47901000  1
  C  C90  1  0.11320000  0.61860000  0.87694000  1
  C  C91  1  0.10117000  0.60377000  0.83147000  1
  C  C92  1  0.88958000  0.60218000  0.49911000  1
  C  C93  1  0.07615000  0.57895000  0.92302000  1
  C  C94  1  0.92385000  0.42105000  0.07698000  1
  C  C95  1  0.11042000  0.39782000  0.50089000  1
  C  C96  1  0.89883000  0.39623000  0.16853000  1
  C  C97  1  0.88680000  0.38140000  0.12306000  1
  C  C98  1  0.18872000  0.37072000  0.52099000  1
  C  C99  1  0.86006000  0.35806000  0.21131000  1
  C  C100  1  0.92343000  0.35463000  0.89004000  1
  C  C101  1  0.10521000  0.33541000  0.47146000  1
  C  C102  1  0.12930000  0.33510000  0.98088000  1
  C  C103  1  0.83661000  0.33281000  0.12041000  1
  C  C104  1  0.91341000  0.32181000  0.81007000  1
  C  C105  1  0.81276000  0.30756000  0.20473000  1
  C  C106  1  0.79932000  0.29532000  0.16129000  1
  C  C107  1  0.90710000  0.29530000  0.86111000  1
  C  C108  1  0.26438000  0.28498000  0.51621000  1
  C  C109  1  0.88563000  0.28023000  0.78022000  1
  C  C110  1  0.28498000  0.26438000  0.01621000  1
  C  C111  1  0.22268000  0.25908000  0.98744000  1
  C  C112  1  0.17888000  0.25028000  0.46397000  1
  C  C113  1  0.85654000  0.24414000  0.88083000  1
  C  C114  1  0.25908000  0.22268000  0.48744000  1
  C  C115  1  0.84540000  0.22000000  0.80095000  1
  C  C116  1  0.70468000  0.20068000  0.33871000  1
  C  C117  1  0.83142000  0.19962000  0.85245000  1
  C  C118  1  0.37072000  0.18872000  0.02099000  1
  C  C119  1  0.69244000  0.18724000  0.29527000  1
  C  C120  1  0.25028000  0.17888000  0.96397000  1
  C  C121  1  0.80038000  0.16858000  0.64755000  1
  C  C122  1  0.66719000  0.16339000  0.37959000  1
  C  C123  1  0.78000000  0.15460000  0.69905000  1
  C  C124  1  0.75586000  0.14346000  0.61917000  1
  C  C125  1  0.64194000  0.13994000  0.28869000  1
  C  C126  1  0.33510000  0.12930000  0.48088000  1
  C  C127  1  0.71977000  0.11437000  0.71978000  1
  C  C128  1  0.61860000  0.11320000  0.37694000  1
  C  C129  1  0.39782000  0.11042000  0.00089000  1
  C  C130  1  0.33541000  0.10521000  0.97146000  1
  C  C131  1  0.60377000  0.10117000  0.33147000  1
  C  C132  1  0.70470000  0.09290000  0.63889000  1
  C  C133  1  0.67819000  0.08659000  0.68993000  1
  C  C134  1  0.64537000  0.07657000  0.60996000  1
  C  C135  1  0.57895000  0.07615000  0.42302000  1
  N  N136  1  0.51536000  0.95558000  0.99474000  1
  N  N137  1  0.19043000  0.82003000  0.22509000  1
  N  N138  1  0.17997000  0.80957000  0.27491000  1
  N  N139  1  0.27596000  0.77396000  0.74918000  1
  N  N140  1  0.22604000  0.72404000  0.75082000  1
  N  N141  1  0.95558000  0.51536000  0.49474000  1
  N  N142  1  0.04442000  0.48464000  0.50526000  1
  N  N143  1  0.77396000  0.27596000  0.24918000  1
  N  N144  1  0.72404000  0.22604000  0.25082000  1
  N  N145  1  0.82003000  0.19043000  0.72509000  1
  N  N146  1  0.80957000  0.17997000  0.77491000  1
  N  N147  1  0.48464000  0.04442000  0.00526000  1
  O  O148  1  0.46928000  0.96352000  0.58620000  1
  O  O149  1  0.40932000  0.95824000  0.37397000  1
  O  O150  1  0.67496000  0.92064000  0.54606000  1
  O  O151  1  0.40755000  0.91535000  0.53519000  1
  O  O152  1  0.59706000  0.89650000  0.49714000  1
  O  O153  1  0.34354000  0.89638000  0.43656000  1
  O  O154  1  0.92064000  0.67496000  0.04606000  1
  O  O155  1  0.10362000  0.65646000  0.06344000  1
  O  O156  1  0.89650000  0.59706000  0.99714000  1
  O  O157  1  0.08465000  0.59245000  0.96481000  1
  O  O158  1  0.04176000  0.59068000  0.12603000  1
  O  O159  1  0.03648000  0.53072000  0.91380000  1
  O  O160  1  0.96352000  0.46928000  0.08620000  1
  O  O161  1  0.95824000  0.40932000  0.87397000  1
  O  O162  1  0.91535000  0.40755000  0.03519000  1
  O  O163  1  0.10350000  0.40294000  0.00286000  1
  O  O164  1  0.89638000  0.34354000  0.93656000  1
  O  O165  1  0.07936000  0.32504000  0.95394000  1
  O  O166  1  0.65646000  0.10362000  0.56344000  1
  O  O167  1  0.40294000  0.10350000  0.50286000  1
  O  O168  1  0.59245000  0.08465000  0.46481000  1
  O  O169  1  0.32504000  0.07936000  0.45394000  1
  O  O170  1  0.59068000  0.04176000  0.62603000  1
  O  O171  1  0.53072000  0.03648000  0.41380000  1
