# generated using pymatgen
data_MnH4(C2O)4
_symmetry_space_group_name_H-M   'P 1'
_cell_length_a   10.65700000
_cell_length_b   13.48300000
_cell_length_c   14.36500000
_cell_angle_alpha   76.86560000
_cell_angle_beta   68.22670000
_cell_angle_gamma   66.72150000
_symmetry_Int_Tables_number   1
_chemical_formula_structural   MnH4(C2O)4
_chemical_formula_sum   'Mn6 H24 C48 O24'
_cell_volume   1752.90352201
_cell_formula_units_Z   6
loop_
 _symmetry_equiv_pos_site_id
 _symmetry_equiv_pos_as_xyz
  1  'x, y, z'
loop_
 _atom_site_type_symbol
 _atom_site_label
 _atom_site_symmetry_multiplicity
 _atom_site_fract_x
 _atom_site_fract_y
 _atom_site_fract_z
 _atom_site_occupancy
  Mn  Mn0  1  0.14376000  0.96075000  0.89079000  1
  Mn  Mn1  1  0.21914000  0.75000000  0.75000000  1
  Mn  Mn2  1  0.49530000  0.53925000  0.60921000  1
  Mn  Mn3  1  0.50470000  0.46075000  0.39079000  1
  Mn  Mn4  1  0.78086000  0.25000000  0.25000000  1
  Mn  Mn5  1  0.85624000  0.03925000  0.10921000  1
  H  H6  1  0.04700000  0.45790000  0.09230000  1
  H  H7  1  0.09720000  0.04210000  0.40770000  1
  H  H8  1  0.13650000  0.81370000  0.25250000  1
  H  H9  1  0.13670000  0.59090000  0.99070000  1
  H  H10  1  0.20120000  0.18170000  0.84630000  1
  H  H11  1  0.21830000  0.90910000  0.50930000  1
  H  H12  1  0.27080000  0.68170000  0.34630000  1
  H  H13  1  0.29730000  0.31370000  0.75250000  1
  H  H14  1  0.34060000  0.62560000  0.11460000  1
  H  H15  1  0.34700000  0.66240000  0.94740000  1
  H  H16  1  0.41920000  0.12560000  0.61460000  1
  H  H17  1  0.45680000  0.83760000  0.55260000  1
  H  H18  1  0.54320000  0.16240000  0.44740000  1
  H  H19  1  0.58080000  0.87440000  0.38540000  1
  H  H20  1  0.65300000  0.33760000  0.05260000  1
  H  H21  1  0.65940000  0.37440000  0.88540000  1
  H  H22  1  0.70270000  0.68630000  0.24750000  1
  H  H23  1  0.72920000  0.31830000  0.65370000  1
  H  H24  1  0.78170000  0.09090000  0.49070000  1
  H  H25  1  0.79880000  0.81830000  0.15370000  1
  H  H26  1  0.86330000  0.40910000  0.00930000  1
  H  H27  1  0.86350000  0.18630000  0.74750000  1
  H  H28  1  0.90280000  0.95790000  0.59230000  1
  H  H29  1  0.95300000  0.54210000  0.90770000  1
  C  C30  1  0.00435000  0.46954000  0.89676000  1
  C  C31  1  0.01312000  0.02581000  0.26055000  1
  C  C32  1  0.02417000  0.28174000  0.93932000  1
  C  C33  1  0.03236000  0.80448000  0.99580000  1
  C  C34  1  0.05028000  0.61016000  0.04288000  1
  C  C35  1  0.10348000  0.94114000  0.32050000  1
  C  C36  1  0.12935000  0.96954000  0.39676000  1
  C  C37  1  0.13488000  0.44114000  0.82050000  1
  C  C38  1  0.15282000  0.25365000  0.86051000  1
  C  C39  1  0.15466000  0.83321000  0.30307000  1
  C  C40  1  0.20052000  0.52581000  0.76055000  1
  C  C41  1  0.20332000  0.88984000  0.45712000  1
  C  C42  1  0.20906000  0.33321000  0.80307000  1
  C  C43  1  0.23302000  0.75365000  0.36051000  1
  C  C44  1  0.25477000  0.78174000  0.43932000  1
  C  C45  1  0.33264000  0.69552000  0.50420000  1
  C  C46  1  0.34082000  0.95612000  0.70684000  1
  C  C47  1  0.40474000  0.57527000  0.06865000  1
  C  C48  1  0.40832000  0.59706000  0.96850000  1
  C  C49  1  0.42487000  0.97815000  0.59991000  1
  C  C50  1  0.45134000  0.07527000  0.56865000  1
  C  C51  1  0.47388000  0.90294000  0.53150000  1
  C  C52  1  0.49622000  0.45612000  0.20684000  1
  C  C53  1  0.49707000  0.47815000  0.09991000  1
  C  C54  1  0.50293000  0.52185000  0.90009000  1
  C  C55  1  0.50378000  0.54388000  0.79316000  1
  C  C56  1  0.52612000  0.09706000  0.46850000  1
  C  C57  1  0.54866000  0.92473000  0.43135000  1
  C  C58  1  0.57513000  0.02185000  0.40009000  1
  C  C59  1  0.59168000  0.40294000  0.03150000  1
  C  C60  1  0.59526000  0.42473000  0.93135000  1
  C  C61  1  0.65918000  0.04388000  0.29316000  1
  C  C62  1  0.66736000  0.30448000  0.49580000  1
  C  C63  1  0.74523000  0.21826000  0.56068000  1
  C  C64  1  0.76698000  0.24635000  0.63949000  1
  C  C65  1  0.79094000  0.66679000  0.19693000  1
  C  C66  1  0.79668000  0.11016000  0.54288000  1
  C  C67  1  0.79948000  0.47419000  0.23945000  1
  C  C68  1  0.84534000  0.16679000  0.69693000  1
  C  C69  1  0.84718000  0.74635000  0.13949000  1
  C  C70  1  0.86512000  0.55886000  0.17950000  1
  C  C71  1  0.87065000  0.03046000  0.60324000  1
  C  C72  1  0.89652000  0.05886000  0.67950000  1
  C  C73  1  0.94972000  0.38984000  0.95712000  1
  C  C74  1  0.96764000  0.19552000  0.00420000  1
  C  C75  1  0.97583000  0.71826000  0.06068000  1
  C  C76  1  0.98688000  0.97419000  0.73945000  1
  C  C77  1  0.99565000  0.53046000  0.10324000  1
  O  O78  1  0.00166000  0.00816000  0.80792000  1
  O  O79  1  0.01838000  0.10121000  0.97623000  1
  O  O80  1  0.04283000  0.87820000  0.71614000  1
  O  O81  1  0.13295000  0.78315000  0.91355000  1
  O  O82  1  0.13717000  0.62180000  0.78386000  1
  O  O83  1  0.29119000  0.02789000  0.76593000  1
  O  O84  1  0.31774000  0.49184000  0.69208000  1
  O  O85  1  0.32083000  0.86623000  0.73531000  1
  O  O86  1  0.32965000  0.71685000  0.58645000  1
  O  O87  1  0.40418000  0.60121000  0.47623000  1
  O  O88  1  0.41499000  0.52789000  0.26593000  1
  O  O89  1  0.42237000  0.63377000  0.76469000  1
  O  O90  1  0.57763000  0.36623000  0.23531000  1
  O  O91  1  0.58501000  0.47211000  0.73407000  1
  O  O92  1  0.59582000  0.39879000  0.52377000  1
  O  O93  1  0.67035000  0.28315000  0.41355000  1
  O  O94  1  0.67917000  0.13377000  0.26469000  1
  O  O95  1  0.68226000  0.50816000  0.30792000  1
  O  O96  1  0.70881000  0.97211000  0.23407000  1
  O  O97  1  0.86283000  0.37820000  0.21614000  1
  O  O98  1  0.86705000  0.21685000  0.08645000  1
  O  O99  1  0.95717000  0.12180000  0.28386000  1
  O  O100  1  0.98162000  0.89879000  0.02377000  1
  O  O101  1  0.99834000  0.99184000  0.19208000  1
