# generated using pymatgen
data_ZnH30C44(N5O2)2
_symmetry_space_group_name_H-M   'P 1'
_cell_length_a   9.32720000
_cell_length_b   21.37700000
_cell_length_c   21.37700000
_cell_angle_alpha   90.00000000
_cell_angle_beta   90.00000000
_cell_angle_gamma   90.00000000
_symmetry_Int_Tables_number   1
_chemical_formula_structural   ZnH30C44(N5O2)2
_chemical_formula_sum   'Zn4 H120 C176 N40 O16'
_cell_volume   4262.30775041
_cell_formula_units_Z   4
loop_
 _symmetry_equiv_pos_site_id
 _symmetry_equiv_pos_as_xyz
  1  'x, y, z'
loop_
 _atom_site_type_symbol
 _atom_site_label
 _atom_site_symmetry_multiplicity
 _atom_site_fract_x
 _atom_site_fract_y
 _atom_site_fract_z
 _atom_site_occupancy
  Zn  Zn0  1  0.07728000  0.00306000  0.14694000  1
  Zn  Zn1  1  0.42272000  0.99694000  0.64694000  1
  Zn  Zn2  1  0.57728000  0.49694000  0.85306000  1
  Zn  Zn3  1  0.92272000  0.50306000  0.35306000  1
  H  H4  1  0.00487000  0.86484000  0.19490000  1
  H  H5  1  0.00836000  0.64571000  0.04291000  1
  H  H6  1  0.02476000  0.82802000  0.94490000  1
  H  H7  1  0.02500000  0.56930000  0.55398000  1
  H  H8  1  0.02732000  0.38210000  0.04682000  1
  H  H9  1  0.03110000  0.82588000  0.71364000  1
  H  H10  1  0.06061000  0.67252000  0.80541000  1
  H  H11  1  0.06378000  0.26945000  0.47299000  1
  H  H12  1  0.06435000  0.27361000  0.18542000  1
  H  H13  1  0.07928000  0.09622000  0.63372000  1
  H  H14  1  0.08343000  0.74692000  0.39676000  1
  H  H15  1  0.09689000  0.04394000  0.85554000  1
  H  H16  1  0.10254000  0.24858000  0.92799000  1
  H  H17  1  0.10686000  0.94020000  0.64268000  1
  H  H18  1  0.10733000  0.81193000  0.60008000  1
  H  H19  1  0.12982000  0.62349000  0.39012000  1
  H  H20  1  0.14799000  0.55297000  0.85760000  1
  H  H21  1  0.15417000  0.42629000  0.87310000  1
  H  H22  1  0.15941000  0.24463000  0.38270000  1
  H  H23  1  0.16599000  0.64292000  0.24584000  1
  H  H24  1  0.17127000  0.99573000  0.00300000  1
  H  H25  1  0.18264000  0.03000000  0.75389000  1
  H  H26  1  0.20614000  0.19664000  0.62433000  1
  H  H27  1  0.21534000  0.22392000  0.83504000  1
  H  H28  1  0.23468000  0.60425000  0.03275000  1
  H  H29  1  0.23884000  0.17248000  0.31127000  1
  H  H30  1  0.24276000  0.15654000  0.02019000  1
  H  H31  1  0.24399000  0.33224000  0.06398000  1
  H  H32  1  0.24654000  0.71262000  0.17154000  1
  H  H33  1  0.24667000  0.87553000  0.95312000  1
  H  H34  1  0.25333000  0.12447000  0.45312000  1
  H  H35  1  0.25346000  0.28738000  0.67154000  1
  H  H36  1  0.25601000  0.66776000  0.56398000  1
  H  H37  1  0.25724000  0.84346000  0.52019000  1
  H  H38  1  0.26116000  0.82752000  0.81127000  1
  H  H39  1  0.26532000  0.39575000  0.53275000  1
  H  H40  1  0.28466000  0.77608000  0.33504000  1
  H  H41  1  0.29386000  0.80336000  0.12433000  1
  H  H42  1  0.31736000  0.97000000  0.25389000  1
  H  H43  1  0.32873000  0.00427000  0.50300000  1
  H  H44  1  0.33401000  0.35708000  0.74584000  1
  H  H45  1  0.34059000  0.75537000  0.88270000  1
  H  H46  1  0.34583000  0.57371000  0.37310000  1
  H  H47  1  0.35201000  0.44703000  0.35760000  1
  H  H48  1  0.37018000  0.37651000  0.89012000  1
  H  H49  1  0.39267000  0.18807000  0.10008000  1
  H  H50  1  0.39314000  0.05980000  0.14268000  1
  H  H51  1  0.39746000  0.75142000  0.42799000  1
  H  H52  1  0.40311000  0.95606000  0.35554000  1
  H  H53  1  0.41657000  0.25308000  0.89676000  1
  H  H54  1  0.42072000  0.90378000  0.13372000  1
  H  H55  1  0.43565000  0.72639000  0.68542000  1
  H  H56  1  0.43622000  0.73055000  0.97299000  1
  H  H57  1  0.43939000  0.32748000  0.30541000  1
  H  H58  1  0.46890000  0.17412000  0.21364000  1
  H  H59  1  0.47268000  0.61790000  0.54682000  1
  H  H60  1  0.47500000  0.43070000  0.05398000  1
  H  H61  1  0.47524000  0.17198000  0.44490000  1
  H  H62  1  0.49164000  0.35429000  0.54291000  1
  H  H63  1  0.49513000  0.13516000  0.69490000  1
  H  H64  1  0.50487000  0.63516000  0.80510000  1
  H  H65  1  0.50836000  0.85429000  0.95709000  1
  H  H66  1  0.52476000  0.67198000  0.05510000  1
  H  H67  1  0.52500000  0.93070000  0.44602000  1
  H  H68  1  0.52732000  0.11790000  0.95318000  1
  H  H69  1  0.53110000  0.67412000  0.28636000  1
  H  H70  1  0.56061000  0.82748000  0.19459000  1
  H  H71  1  0.56378000  0.23055000  0.52701000  1
  H  H72  1  0.56435000  0.22639000  0.81458000  1
  H  H73  1  0.57928000  0.40378000  0.36628000  1
  H  H74  1  0.58343000  0.75308000  0.60324000  1
  H  H75  1  0.59689000  0.45606000  0.14446000  1
  H  H76  1  0.60254000  0.25142000  0.07201000  1
  H  H77  1  0.60686000  0.55980000  0.35732000  1
  H  H78  1  0.60733000  0.68807000  0.39992000  1
  H  H79  1  0.62982000  0.87651000  0.60988000  1
  H  H80  1  0.64799000  0.94703000  0.14240000  1
  H  H81  1  0.65417000  0.07371000  0.12690000  1
  H  H82  1  0.65941000  0.25537000  0.61730000  1
  H  H83  1  0.66599000  0.85708000  0.75416000  1
  H  H84  1  0.67127000  0.50427000  0.99700000  1
  H  H85  1  0.68264000  0.47000000  0.24611000  1
  H  H86  1  0.70614000  0.30336000  0.37567000  1
  H  H87  1  0.71534000  0.27608000  0.16496000  1
  H  H88  1  0.73468000  0.89575000  0.96725000  1
  H  H89  1  0.73884000  0.32752000  0.68873000  1
  H  H90  1  0.74276000  0.34346000  0.97981000  1
  H  H91  1  0.74399000  0.16776000  0.93602000  1
  H  H92  1  0.74654000  0.78738000  0.82846000  1
  H  H93  1  0.74667000  0.62447000  0.04688000  1
  H  H94  1  0.75333000  0.37553000  0.54688000  1
  H  H95  1  0.75346000  0.21262000  0.32846000  1
  H  H96  1  0.75601000  0.83224000  0.43602000  1
  H  H97  1  0.75724000  0.65654000  0.47981000  1
  H  H98  1  0.76116000  0.67248000  0.18873000  1
  H  H99  1  0.76532000  0.10425000  0.46725000  1
  H  H100  1  0.78466000  0.72392000  0.66496000  1
  H  H101  1  0.79386000  0.69664000  0.87567000  1
  H  H102  1  0.81736000  0.53000000  0.74611000  1
  H  H103  1  0.82873000  0.49573000  0.49700000  1
  H  H104  1  0.83401000  0.14292000  0.25416000  1
  H  H105  1  0.84059000  0.74463000  0.11730000  1
  H  H106  1  0.84583000  0.92629000  0.62690000  1
  H  H107  1  0.85201000  0.05297000  0.64240000  1
  H  H108  1  0.87018000  0.12349000  0.10988000  1
  H  H109  1  0.89267000  0.31193000  0.89992000  1
  H  H110  1  0.89314000  0.44020000  0.85732000  1
  H  H111  1  0.89746000  0.74858000  0.57201000  1
  H  H112  1  0.90311000  0.54394000  0.64446000  1
  H  H113  1  0.91657000  0.24692000  0.10324000  1
  H  H114  1  0.92072000  0.59622000  0.86628000  1
  H  H115  1  0.93565000  0.77361000  0.31458000  1
  H  H116  1  0.93622000  0.76945000  0.02701000  1
  H  H117  1  0.93939000  0.17252000  0.69459000  1
  H  H118  1  0.96890000  0.32588000  0.78636000  1
  H  H119  1  0.97268000  0.88210000  0.45318000  1
  H  H120  1  0.97500000  0.06930000  0.94602000  1
  H  H121  1  0.97524000  0.32802000  0.55510000  1
  H  H122  1  0.99164000  0.14571000  0.45709000  1
  H  H123  1  0.99513000  0.36484000  0.30510000  1
  C  C124  1  0.01130000  0.23337000  0.10340000  1
  C  C125  1  0.01640000  0.09825000  0.60000000  1
  C  C126  1  0.02600000  0.09983000  0.92445000  1
  C  C127  1  0.02650000  0.78770000  0.03034000  1
  C  C128  1  0.03030000  0.16107000  0.94692000  1
  C  C129  1  0.03590000  0.62790000  0.00510000  1
  C  C130  1  0.04560000  0.14757000  0.27639000  1
  C  C131  1  0.05440000  0.73578000  0.13465000  1
  C  C132  1  0.05970000  0.12702000  0.54470000  1
  C  C133  1  0.05980000  0.78660000  0.72760000  1
  C  C134  1  0.06120000  0.19642000  0.05428000  1
  C  C135  1  0.07100000  0.41019000  0.95841000  1
  C  C136  1  0.07850000  0.70380000  0.77620000  1
  C  C137  1  0.07890000  0.82310000  0.98110000  1
  C  C138  1  0.08270000  0.87898000  0.21814000  1
  C  C139  1  0.09330000  0.22337000  0.35805000  1
  C  C140  1  0.09680000  0.38144000  0.01562000  1
  C  C141  1  0.09750000  0.08486000  0.87031000  1
  C  C142  1  0.09950000  0.09958000  0.23054000  1
  C  C143  1  0.09990000  0.25020000  0.15219000  1
  C  C144  1  0.10080000  0.66200000  0.21903000  1
  C  C145  1  0.10150000  0.20766000  0.91323000  1
  C  C146  1  0.10590000  0.77877000  0.08449000  1
  C  C147  1  0.12090000  0.57240000  0.89470000  1
  C  C148  1  0.13540000  0.45423000  0.43940000  1
  C  C149  1  0.13660000  0.95129000  0.60266000  1
  C  C150  1  0.14100000  0.18010000  0.31485000  1
  C  C151  1  0.14880000  0.70460000  0.17470000  1
  C  C152  1  0.16760000  0.64920000  0.47950000  1
  C  C153  1  0.16990000  0.19297000  0.85831000  1
  C  C154  1  0.17030000  0.13097000  0.83784000  1
  C  C155  1  0.17200000  0.60270000  0.99890000  1
  C  C156  1  0.17280000  0.40786000  0.91166000  1
  C  C157  1  0.19760000  0.62182000  0.42198000  1
  C  C158  1  0.20420000  0.80164000  0.60138000  1
  C  C159  1  0.20470000  0.15626000  0.53943000  1
  C  C160  1  0.20640000  0.17993000  0.05327000  1
  C  C161  1  0.21230000  0.85130000  0.98600000  1
  C  C162  1  0.21680000  0.57528000  0.94397000  1
  C  C163  1  0.22680000  0.35175000  0.02583000  1
  C  C164  1  0.23990000  0.80801000  0.08805000  1
  C  C165  1  0.24250000  0.23187000  0.15122000  1
  C  C166  1  0.24460000  0.01427000  0.02591000  1
  C  C167  1  0.24800000  0.06250000  0.74905000  1
  C  C168  1  0.25200000  0.93750000  0.24905000  1
  C  C169  1  0.25540000  0.98573000  0.52591000  1
  C  C170  1  0.25750000  0.76813000  0.65122000  1
  C  C171  1  0.26010000  0.19199000  0.58805000  1
  C  C172  1  0.27320000  0.64825000  0.52583000  1
  C  C173  1  0.28320000  0.42472000  0.44397000  1
  C  C174  1  0.28770000  0.14870000  0.48600000  1
  C  C175  1  0.29360000  0.82007000  0.55327000  1
  C  C176  1  0.29530000  0.84374000  0.03943000  1
  C  C177  1  0.29580000  0.19836000  0.10138000  1
  C  C178  1  0.30240000  0.37818000  0.92198000  1
  C  C179  1  0.32720000  0.59214000  0.41166000  1
  C  C180  1  0.32800000  0.39730000  0.49890000  1
  C  C181  1  0.32970000  0.86903000  0.33784000  1
  C  C182  1  0.33010000  0.80703000  0.35831000  1
  C  C183  1  0.33240000  0.35080000  0.97950000  1
  C  C184  1  0.35120000  0.29540000  0.67470000  1
  C  C185  1  0.35900000  0.81990000  0.81485000  1
  C  C186  1  0.36340000  0.04871000  0.10266000  1
  C  C187  1  0.36460000  0.54577000  0.93940000  1
  C  C188  1  0.37910000  0.42760000  0.39470000  1
  C  C189  1  0.39410000  0.22123000  0.58449000  1
  C  C190  1  0.39850000  0.79234000  0.41323000  1
  C  C191  1  0.39920000  0.33800000  0.71903000  1
  C  C192  1  0.40010000  0.74980000  0.65219000  1
  C  C193  1  0.40050000  0.90042000  0.73054000  1
  C  C194  1  0.40250000  0.91514000  0.37031000  1
  C  C195  1  0.40320000  0.61856000  0.51562000  1
  C  C196  1  0.40670000  0.77663000  0.85805000  1
  C  C197  1  0.41730000  0.12102000  0.71814000  1
  C  C198  1  0.42110000  0.17690000  0.48110000  1
  C  C199  1  0.42150000  0.29620000  0.27620000  1
  C  C200  1  0.42900000  0.58981000  0.45841000  1
  C  C201  1  0.43880000  0.80358000  0.55428000  1
  C  C202  1  0.44020000  0.21340000  0.22760000  1
  C  C203  1  0.44030000  0.87298000  0.04470000  1
  C  C204  1  0.44560000  0.26422000  0.63465000  1
  C  C205  1  0.45440000  0.85243000  0.77639000  1
  C  C206  1  0.46410000  0.37210000  0.50510000  1
  C  C207  1  0.46970000  0.83893000  0.44692000  1
  C  C208  1  0.47350000  0.21230000  0.53034000  1
  C  C209  1  0.47400000  0.90017000  0.42445000  1
  C  C210  1  0.48360000  0.90175000  0.10000000  1
  C  C211  1  0.48870000  0.76663000  0.60340000  1
  C  C212  1  0.51130000  0.26663000  0.89660000  1
  C  C213  1  0.51640000  0.40175000  0.40000000  1
  C  C214  1  0.52600000  0.40017000  0.07555000  1
  C  C215  1  0.52650000  0.71230000  0.96966000  1
  C  C216  1  0.53030000  0.33893000  0.05308000  1
  C  C217  1  0.53590000  0.87210000  0.99490000  1
  C  C218  1  0.54560000  0.35243000  0.72361000  1
  C  C219  1  0.55440000  0.76422000  0.86535000  1
  C  C220  1  0.55970000  0.37298000  0.45530000  1
  C  C221  1  0.55980000  0.71340000  0.27240000  1
  C  C222  1  0.56120000  0.30358000  0.94572000  1
  C  C223  1  0.57100000  0.08981000  0.04159000  1
  C  C224  1  0.57850000  0.79620000  0.22380000  1
  C  C225  1  0.57890000  0.67690000  0.01890000  1
  C  C226  1  0.58270000  0.62102000  0.78186000  1
  C  C227  1  0.59330000  0.27663000  0.64195000  1
  C  C228  1  0.59680000  0.11856000  0.98438000  1
  C  C229  1  0.59750000  0.41514000  0.12969000  1
  C  C230  1  0.59950000  0.40042000  0.76946000  1
  C  C231  1  0.59990000  0.24980000  0.84781000  1
  C  C232  1  0.60080000  0.83800000  0.78097000  1
  C  C233  1  0.60150000  0.29234000  0.08677000  1
  C  C234  1  0.60590000  0.72123000  0.91551000  1
  C  C235  1  0.62090000  0.92760000  0.10530000  1
  C  C236  1  0.63540000  0.04577000  0.56060000  1
  C  C237  1  0.63660000  0.54871000  0.39734000  1
  C  C238  1  0.64100000  0.31990000  0.68515000  1
  C  C239  1  0.64880000  0.79540000  0.82530000  1
  C  C240  1  0.66760000  0.85080000  0.52050000  1
  C  C241  1  0.66990000  0.30703000  0.14169000  1
  C  C242  1  0.67030000  0.36903000  0.16216000  1
  C  C243  1  0.67200000  0.89730000  0.00110000  1
  C  C244  1  0.67280000  0.09214000  0.08834000  1
  C  C245  1  0.69760000  0.87818000  0.57802000  1
  C  C246  1  0.70420000  0.69836000  0.39862000  1
  C  C247  1  0.70470000  0.34374000  0.46057000  1
  C  C248  1  0.70640000  0.32007000  0.94673000  1
  C  C249  1  0.71230000  0.64870000  0.01400000  1
  C  C250  1  0.71680000  0.92472000  0.05603000  1
  C  C251  1  0.72680000  0.14825000  0.97417000  1
  C  C252  1  0.73990000  0.69199000  0.91195000  1
  C  C253  1  0.74250000  0.26813000  0.84878000  1
  C  C254  1  0.74460000  0.48573000  0.97409000  1
  C  C255  1  0.74800000  0.43750000  0.25095000  1
  C  C256  1  0.75200000  0.56250000  0.75095000  1
  C  C257  1  0.75540000  0.51427000  0.47409000  1
  C  C258  1  0.75750000  0.73187000  0.34878000  1
  C  C259  1  0.76010000  0.30801000  0.41195000  1
  C  C260  1  0.77320000  0.85175000  0.47417000  1
  C  C261  1  0.78320000  0.07528000  0.55603000  1
  C  C262  1  0.78770000  0.35130000  0.51400000  1
  C  C263  1  0.79360000  0.67993000  0.44673000  1
  C  C264  1  0.79530000  0.65626000  0.96057000  1
  C  C265  1  0.79580000  0.30164000  0.89862000  1
  C  C266  1  0.80240000  0.12182000  0.07802000  1
  C  C267  1  0.82720000  0.90786000  0.58834000  1
  C  C268  1  0.82800000  0.10270000  0.50110000  1
  C  C269  1  0.82970000  0.63097000  0.66216000  1
  C  C270  1  0.83010000  0.69297000  0.64169000  1
  C  C271  1  0.83240000  0.14920000  0.02050000  1
  C  C272  1  0.85120000  0.20460000  0.32530000  1
  C  C273  1  0.85900000  0.68010000  0.18515000  1
  C  C274  1  0.86340000  0.45129000  0.89734000  1
  C  C275  1  0.86460000  0.95423000  0.06060000  1
  C  C276  1  0.87910000  0.07240000  0.60530000  1
  C  C277  1  0.89410000  0.27877000  0.41551000  1
  C  C278  1  0.89850000  0.70766000  0.58677000  1
  C  C279  1  0.89920000  0.16200000  0.28097000  1
  C  C280  1  0.90010000  0.75020000  0.34781000  1
  C  C281  1  0.90050000  0.59958000  0.26946000  1
  C  C282  1  0.90250000  0.58486000  0.62969000  1
  C  C283  1  0.90320000  0.88144000  0.48438000  1
  C  C284  1  0.90670000  0.72337000  0.14195000  1
  C  C285  1  0.91730000  0.37898000  0.28186000  1
  C  C286  1  0.92110000  0.32310000  0.51890000  1
  C  C287  1  0.92150000  0.20380000  0.72380000  1
  C  C288  1  0.92900000  0.91019000  0.54159000  1
  C  C289  1  0.93880000  0.69642000  0.44572000  1
  C  C290  1  0.94020000  0.28660000  0.77240000  1
  C  C291  1  0.94030000  0.62702000  0.95530000  1
  C  C292  1  0.94560000  0.23578000  0.36535000  1
  C  C293  1  0.95440000  0.64757000  0.22361000  1
  C  C294  1  0.96410000  0.12790000  0.49490000  1
  C  C295  1  0.96970000  0.66107000  0.55308000  1
  C  C296  1  0.97350000  0.28770000  0.46966000  1
  C  C297  1  0.97400000  0.59983000  0.57555000  1
  C  C298  1  0.98360000  0.59825000  0.90000000  1
  C  C299  1  0.98870000  0.73337000  0.39660000  1
  N  N300  1  0.00230000  0.75710000  0.77560000  1
  N  N301  1  0.03240000  0.67629000  0.49349000  1
  N  N302  1  0.06240000  0.94221000  0.55021000  1
  N  N303  1  0.13790000  0.96399000  0.49994000  1
  N  N304  1  0.13850000  0.84650000  0.26431000  1
  N  N305  1  0.14830000  0.93555000  0.20684000  1
  N  N306  1  0.16590000  0.75237000  0.70153000  1
  N  N307  1  0.18080000  0.69780000  0.73330000  1
  N  N308  1  0.23930000  0.02104000  0.08831000  1
  N  N309  1  0.24810000  0.88560000  0.28353000  1
  N  N310  1  0.25190000  0.11440000  0.78353000  1
  N  N311  1  0.26070000  0.97896000  0.58831000  1
  N  N312  1  0.31920000  0.30220000  0.23330000  1
  N  N313  1  0.33410000  0.24763000  0.20153000  1
  N  N314  1  0.35170000  0.06445000  0.70684000  1
  N  N315  1  0.36150000  0.15350000  0.76431000  1
  N  N316  1  0.36210000  0.03601000  0.99994000  1
  N  N317  1  0.43760000  0.05779000  0.05021000  1
  N  N318  1  0.46760000  0.32371000  0.99349000  1
  N  N319  1  0.49770000  0.24290000  0.27560000  1
  N  N320  1  0.50230000  0.74290000  0.22440000  1
  N  N321  1  0.53240000  0.82371000  0.50651000  1
  N  N322  1  0.56240000  0.55779000  0.44979000  1
  N  N323  1  0.63790000  0.53601000  0.50006000  1
  N  N324  1  0.63850000  0.65350000  0.73569000  1
  N  N325  1  0.64830000  0.56445000  0.79316000  1
  N  N326  1  0.66590000  0.74763000  0.29847000  1
  N  N327  1  0.68080000  0.80220000  0.26670000  1
  N  N328  1  0.73930000  0.47896000  0.91169000  1
  N  N329  1  0.74810000  0.61440000  0.71647000  1
  N  N330  1  0.75190000  0.38560000  0.21647000  1
  N  N331  1  0.76070000  0.52104000  0.41169000  1
  N  N332  1  0.81920000  0.19780000  0.76670000  1
  N  N333  1  0.83410000  0.25237000  0.79847000  1
  N  N334  1  0.85170000  0.43555000  0.29316000  1
  N  N335  1  0.86150000  0.34650000  0.23569000  1
  N  N336  1  0.86210000  0.46399000  0.00006000  1
  N  N337  1  0.93760000  0.44221000  0.94979000  1
  N  N338  1  0.96760000  0.17629000  0.00651000  1
  N  N339  1  0.99770000  0.25710000  0.72440000  1
  O  O340  1  0.00400000  0.07459000  0.19480000  1
  O  O341  1  0.07030000  0.47030000  0.48556000  1
  O  O342  1  0.09270000  0.46141000  0.38248000  1
  O  O343  1  0.22820000  0.08503000  0.22962000  1
  O  O344  1  0.27180000  0.91497000  0.72962000  1
  O  O345  1  0.40730000  0.53859000  0.88248000  1
  O  O346  1  0.42970000  0.52970000  0.98556000  1
  O  O347  1  0.49600000  0.92541000  0.69480000  1
  O  O348  1  0.50400000  0.42541000  0.80520000  1
  O  O349  1  0.57030000  0.02970000  0.51444000  1
  O  O350  1  0.59270000  0.03859000  0.61752000  1
  O  O351  1  0.72820000  0.41497000  0.77038000  1
  O  O352  1  0.77180000  0.58503000  0.27038000  1
  O  O353  1  0.90730000  0.96141000  0.11752000  1
  O  O354  1  0.92970000  0.97030000  0.01444000  1
  O  O355  1  0.99600000  0.57459000  0.30520000  1
