# generated using pymatgen
data_In3H36C66O13
_symmetry_space_group_name_H-M   'P 1'
_cell_length_a   19.43560000
_cell_length_b   19.43560000
_cell_length_c   27.89300000
_cell_angle_alpha   90.00000000
_cell_angle_beta   90.00000000
_cell_angle_gamma   120.00000000
_symmetry_Int_Tables_number   1
_chemical_formula_structural   In3H36C66O13
_chemical_formula_sum   'In6 H72 C132 O26'
_cell_volume   9124.76657221
_cell_formula_units_Z   2
loop_
 _symmetry_equiv_pos_site_id
 _symmetry_equiv_pos_as_xyz
  1  'x, y, z'
loop_
 _atom_site_type_symbol
 _atom_site_label
 _atom_site_symmetry_multiplicity
 _atom_site_fract_x
 _atom_site_fract_y
 _atom_site_fract_z
 _atom_site_occupancy
  In  In0  1  0.78283000  0.36401000  0.75000000  1
  In  In1  1  0.63599000  0.41882000  0.75000000  1
  In  In2  1  0.58118000  0.21717000  0.75000000  1
  In  In3  1  0.41882000  0.63599000  0.25000000  1
  In  In4  1  0.36401000  0.78283000  0.25000000  1
  In  In5  1  0.21717000  0.58118000  0.25000000  1
  H  H6  1  0.00000000  0.11820000  0.00000000  1
  H  H7  1  0.00000000  0.11820000  0.50000000  1
  H  H8  1  0.00000000  0.66220000  0.00000000  1
  H  H9  1  0.00000000  0.66220000  0.50000000  1
  H  H10  1  0.98820000  0.62530000  0.92060000  1
  H  H11  1  0.98820000  0.62530000  0.57940000  1
  H  H12  1  0.92340000  0.80200000  0.94480000  1
  H  H13  1  0.92340000  0.80200000  0.55520000  1
  H  H14  1  0.91570000  0.52700000  0.86490000  1
  H  H15  1  0.91570000  0.52700000  0.63510000  1
  H  H16  1  0.88180000  0.88180000  1.00000000  1
  H  H17  1  0.88180000  0.88180000  0.50000000  1
  H  H18  1  0.87860000  0.07660000  0.94480000  1
  H  H19  1  0.87860000  0.07660000  0.55520000  1
  H  H20  1  0.86440000  0.18280000  0.92480000  1
  H  H21  1  0.86440000  0.18280000  0.57520000  1
  H  H22  1  0.84030000  0.25000000  0.86630000  1
  H  H23  1  0.84030000  0.25000000  0.63370000  1
  H  H24  1  0.81720000  0.68160000  0.92480000  1
  H  H25  1  0.81720000  0.68160000  0.57520000  1
  H  H26  1  0.80200000  0.92340000  0.44480000  1
  H  H27  1  0.80200000  0.92340000  0.05520000  1
  H  H28  1  0.75000000  0.59030000  0.86630000  1
  H  H29  1  0.75000000  0.59030000  0.63370000  1
  H  H30  1  0.68160000  0.81720000  0.42480000  1
  H  H31  1  0.68160000  0.81720000  0.07520000  1
  H  H32  1  0.66220000  0.00000000  0.00000000  1
  H  H33  1  0.66220000  0.00000000  0.50000000  1
  H  H34  1  0.63710000  0.01180000  0.92060000  1
  H  H35  1  0.63710000  0.01180000  0.57940000  1
  H  H36  1  0.62530000  0.98820000  0.42060000  1
  H  H37  1  0.62530000  0.98820000  0.07940000  1
  H  H38  1  0.61130000  0.08430000  0.86490000  1
  H  H39  1  0.61130000  0.08430000  0.63510000  1
  H  H40  1  0.59030000  0.75000000  0.36630000  1
  H  H41  1  0.59030000  0.75000000  0.13370000  1
  H  H42  1  0.52700000  0.91570000  0.36490000  1
  H  H43  1  0.52700000  0.91570000  0.13510000  1
  H  H44  1  0.47300000  0.38870000  0.86490000  1
  H  H45  1  0.47300000  0.38870000  0.63510000  1
  H  H46  1  0.40970000  0.15970000  0.86630000  1
  H  H47  1  0.40970000  0.15970000  0.63370000  1
  H  H48  1  0.38870000  0.47300000  0.36490000  1
  H  H49  1  0.38870000  0.47300000  0.13510000  1
  H  H50  1  0.37470000  0.36290000  0.92060000  1
  H  H51  1  0.37470000  0.36290000  0.57940000  1
  H  H52  1  0.36290000  0.37470000  0.42060000  1
  H  H53  1  0.36290000  0.37470000  0.07940000  1
  H  H54  1  0.33780000  0.33780000  1.00000000  1
  H  H55  1  0.33780000  0.33780000  0.50000000  1
  H  H56  1  0.31840000  0.13560000  0.92480000  1
  H  H57  1  0.31840000  0.13560000  0.57520000  1
  H  H58  1  0.25000000  0.84030000  0.36630000  1
  H  H59  1  0.25000000  0.84030000  0.13370000  1
  H  H60  1  0.19800000  0.12140000  0.94480000  1
  H  H61  1  0.19800000  0.12140000  0.55520000  1
  H  H62  1  0.18280000  0.86440000  0.42480000  1
  H  H63  1  0.18280000  0.86440000  0.07520000  1
  H  H64  1  0.15970000  0.40970000  0.36630000  1
  H  H65  1  0.15970000  0.40970000  0.13370000  1
  H  H66  1  0.13560000  0.31840000  0.42480000  1
  H  H67  1  0.13560000  0.31840000  0.07520000  1
  H  H68  1  0.12140000  0.19800000  0.44480000  1
  H  H69  1  0.12140000  0.19800000  0.05520000  1
  H  H70  1  0.11820000  1.00000000  0.00000000  1
  H  H71  1  0.11820000  1.00000000  0.50000000  1
  H  H72  1  0.08430000  0.61130000  0.36490000  1
  H  H73  1  0.08430000  0.61130000  0.13510000  1
  H  H74  1  0.07660000  0.87860000  0.44480000  1
  H  H75  1  0.07660000  0.87860000  0.05520000  1
  H  H76  1  0.01180000  0.63710000  0.42060000  1
  H  H77  1  0.01180000  0.63710000  0.07940000  1
  C  C78  1  0.00000000  0.07034000  0.00000000  1
  C  C79  1  0.00000000  0.07034000  0.50000000  1
  C  C80  1  0.00000000  0.71007000  0.00000000  1
  C  C81  1  0.00000000  0.71007000  0.50000000  1
  C  C82  1  0.00000000  0.85303000  0.00000000  1
  C  C83  1  0.00000000  0.85303000  0.50000000  1
  C  C84  1  0.00000000  0.92933000  0.00000000  1
  C  C85  1  0.00000000  0.92933000  0.50000000  1
  C  C86  1  0.95475000  0.72309000  0.96623000  1
  C  C87  1  0.95475000  0.72309000  0.53377000  1
  C  C88  1  0.95445000  0.79370000  0.96686000  1
  C  C89  1  0.95445000  0.79370000  0.53314000  1
  C  C90  1  0.93911000  0.61701000  0.91041000  1
  C  C91  1  0.93911000  0.61701000  0.58959000  1
  C  C92  1  0.92966000  0.92966000  1.00000000  1
  C  C93  1  0.92966000  0.92966000  0.50000000  1
  C  C94  1  0.92933000  1.00000000  1.00000000  1
  C  C95  1  0.92933000  1.00000000  0.50000000  1
  C  C96  1  0.90876000  0.66227000  0.92978000  1
  C  C97  1  0.90876000  0.66227000  0.57022000  1
  C  C98  1  0.89671000  0.55955000  0.87594000  1
  C  C99  1  0.89671000  0.55955000  0.62406000  1
  C  C100  1  0.85303000  1.00000000  0.00000000  1
  C  C101  1  0.85303000  1.00000000  0.50000000  1
  C  C102  1  0.83925000  0.04555000  0.96686000  1
  C  C103  1  0.83925000  0.04555000  0.53314000  1
  C  C104  1  0.83805000  0.65142000  0.91249000  1
  C  C105  1  0.83805000  0.65142000  0.58751000  1
  C  C106  1  0.82703000  0.55059000  0.85813000  1
  C  C107  1  0.82703000  0.55059000  0.64187000  1
  C  C108  1  0.81337000  0.16195000  0.91249000  1
  C  C109  1  0.81337000  0.16195000  0.58751000  1
  C  C110  1  0.79885000  0.20210000  0.87744000  1
  C  C111  1  0.79885000  0.20210000  0.62256000  1
  C  C112  1  0.79790000  0.59675000  0.87744000  1
  C  C113  1  0.79790000  0.59675000  0.62256000  1
  C  C114  1  0.79370000  0.95445000  0.46686000  1
  C  C115  1  0.79370000  0.95445000  0.03314000  1
  C  C116  1  0.78367000  0.49270000  0.81940000  1
  C  C117  1  0.78367000  0.49270000  0.68060000  1
  C  C118  1  0.76834000  0.04525000  0.96623000  1
  C  C119  1  0.76834000  0.04525000  0.53377000  1
  C  C120  1  0.75351000  0.09124000  0.92978000  1
  C  C121  1  0.75351000  0.09124000  0.57022000  1
  C  C122  1  0.72356000  0.17297000  0.85813000  1
  C  C123  1  0.72356000  0.17297000  0.64187000  1
  C  C124  1  0.72309000  0.95475000  0.46623000  1
  C  C125  1  0.72309000  0.95475000  0.03377000  1
  C  C126  1  0.71007000  0.00000000  0.00000000  1
  C  C127  1  0.71007000  0.00000000  0.50000000  1
  C  C128  1  0.70903000  0.21633000  0.81940000  1
  C  C129  1  0.70903000  0.21633000  0.68060000  1
  C  C130  1  0.67790000  0.06089000  0.91041000  1
  C  C131  1  0.67790000  0.06089000  0.58959000  1
  C  C132  1  0.66284000  0.10329000  0.87594000  1
  C  C133  1  0.66284000  0.10329000  0.62406000  1
  C  C134  1  0.66227000  0.90876000  0.42978000  1
  C  C135  1  0.66227000  0.90876000  0.07022000  1
  C  C136  1  0.65142000  0.83805000  0.41249000  1
  C  C137  1  0.65142000  0.83805000  0.08751000  1
  C  C138  1  0.61701000  0.93911000  0.41041000  1
  C  C139  1  0.61701000  0.93911000  0.08959000  1
  C  C140  1  0.59675000  0.79790000  0.37744000  1
  C  C141  1  0.59675000  0.79790000  0.12256000  1
  C  C142  1  0.55955000  0.89671000  0.37594000  1
  C  C143  1  0.55955000  0.89671000  0.12406000  1
  C  C144  1  0.55059000  0.82703000  0.35813000  1
  C  C145  1  0.55059000  0.82703000  0.14187000  1
  C  C146  1  0.50730000  0.29097000  0.81940000  1
  C  C147  1  0.50730000  0.29097000  0.68060000  1
  C  C148  1  0.49270000  0.78367000  0.31940000  1
  C  C149  1  0.49270000  0.78367000  0.18060000  1
  C  C150  1  0.44941000  0.27644000  0.85813000  1
  C  C151  1  0.44941000  0.27644000  0.64187000  1
  C  C152  1  0.44045000  0.33716000  0.87594000  1
  C  C153  1  0.44045000  0.33716000  0.62406000  1
  C  C154  1  0.40325000  0.20115000  0.87744000  1
  C  C155  1  0.40325000  0.20115000  0.62256000  1
  C  C156  1  0.38299000  0.32210000  0.91041000  1
  C  C157  1  0.38299000  0.32210000  0.58959000  1
  C  C158  1  0.34858000  0.18663000  0.91249000  1
  C  C159  1  0.34858000  0.18663000  0.58751000  1
  C  C160  1  0.33773000  0.24649000  0.92978000  1
  C  C161  1  0.33773000  0.24649000  0.57022000  1
  C  C162  1  0.33716000  0.44045000  0.37594000  1
  C  C163  1  0.33716000  0.44045000  0.12406000  1
  C  C164  1  0.32210000  0.38299000  0.41041000  1
  C  C165  1  0.32210000  0.38299000  0.08959000  1
  C  C166  1  0.29097000  0.50730000  0.31940000  1
  C  C167  1  0.29097000  0.50730000  0.18060000  1
  C  C168  1  0.28993000  0.28993000  1.00000000  1
  C  C169  1  0.28993000  0.28993000  0.50000000  1
  C  C170  1  0.27691000  0.23166000  0.96623000  1
  C  C171  1  0.27691000  0.23166000  0.53377000  1
  C  C172  1  0.27644000  0.44941000  0.35813000  1
  C  C173  1  0.27644000  0.44941000  0.14187000  1
  C  C174  1  0.24649000  0.33773000  0.42978000  1
  C  C175  1  0.24649000  0.33773000  0.07022000  1
  C  C176  1  0.23166000  0.27691000  0.46623000  1
  C  C177  1  0.23166000  0.27691000  0.03377000  1
  C  C178  1  0.21633000  0.70903000  0.31940000  1
  C  C179  1  0.21633000  0.70903000  0.18060000  1
  C  C180  1  0.20630000  0.16075000  0.96686000  1
  C  C181  1  0.20630000  0.16075000  0.53314000  1
  C  C182  1  0.20210000  0.79885000  0.37744000  1
  C  C183  1  0.20210000  0.79885000  0.12256000  1
  C  C184  1  0.20115000  0.40325000  0.37744000  1
  C  C185  1  0.20115000  0.40325000  0.12256000  1
  C  C186  1  0.18663000  0.34858000  0.41249000  1
  C  C187  1  0.18663000  0.34858000  0.08751000  1
  C  C188  1  0.17297000  0.72356000  0.35813000  1
  C  C189  1  0.17297000  0.72356000  0.14187000  1
  C  C190  1  0.16195000  0.81337000  0.41249000  1
  C  C191  1  0.16195000  0.81337000  0.08751000  1
  C  C192  1  0.16075000  0.20630000  0.46686000  1
  C  C193  1  0.16075000  0.20630000  0.03314000  1
  C  C194  1  0.14697000  0.14697000  1.00000000  1
  C  C195  1  0.14697000  0.14697000  0.50000000  1
  C  C196  1  0.10329000  0.66284000  0.37594000  1
  C  C197  1  0.10329000  0.66284000  0.12406000  1
  C  C198  1  0.09124000  0.75351000  0.42978000  1
  C  C199  1  0.09124000  0.75351000  0.07022000  1
  C  C200  1  0.07067000  0.07067000  0.00000000  1
  C  C201  1  0.07067000  0.07067000  0.50000000  1
  C  C202  1  0.07034000  0.00000000  0.00000000  1
  C  C203  1  0.07034000  0.00000000  0.50000000  1
  C  C204  1  0.06089000  0.67790000  0.41041000  1
  C  C205  1  0.06089000  0.67790000  0.08959000  1
  C  C206  1  0.04555000  0.83925000  0.46686000  1
  C  C207  1  0.04555000  0.83925000  0.03314000  1
  C  C208  1  0.04525000  0.76834000  0.46623000  1
  C  C209  1  0.04525000  0.76834000  0.03377000  1
  O  O210  1  0.81421000  0.45354000  0.80459000  1
  O  O211  1  0.81421000  0.45354000  0.69541000  1
  O  O212  1  0.76714000  0.27891000  0.80470000  1
  O  O213  1  0.76714000  0.27891000  0.69530000  1
  O  O214  1  0.72109000  0.48823000  0.80470000  1
  O  O215  1  0.72109000  0.48823000  0.69530000  1
  O  O216  1  0.66666667  0.33333333  0.75000000  1
  O  O217  1  0.63933000  0.18579000  0.80459000  1
  O  O218  1  0.63933000  0.18579000  0.69541000  1
  O  O219  1  0.54646000  0.36067000  0.80459000  1
  O  O220  1  0.54646000  0.36067000  0.69541000  1
  O  O221  1  0.51177000  0.23286000  0.80470000  1
  O  O222  1  0.51177000  0.23286000  0.69530000  1
  O  O223  1  0.48823000  0.72109000  0.30470000  1
  O  O224  1  0.48823000  0.72109000  0.19530000  1
  O  O225  1  0.45354000  0.81421000  0.30459000  1
  O  O226  1  0.45354000  0.81421000  0.19541000  1
  O  O227  1  0.36067000  0.54646000  0.30459000  1
  O  O228  1  0.36067000  0.54646000  0.19541000  1
  O  O229  1  0.33333333  0.66666667  0.25000000  1
  O  O230  1  0.27891000  0.76714000  0.30470000  1
  O  O231  1  0.27891000  0.76714000  0.19530000  1
  O  O232  1  0.23286000  0.51177000  0.30470000  1
  O  O233  1  0.23286000  0.51177000  0.19530000  1
  O  O234  1  0.18579000  0.63933000  0.30459000  1
  O  O235  1  0.18579000  0.63933000  0.19541000  1
