# generated using pymatgen
data_CoH4(CN)8
_symmetry_space_group_name_H-M   'P 1'
_cell_length_a   17.50300000
_cell_length_b   18.34100000
_cell_length_c   18.34100000
_cell_angle_alpha   90.00000000
_cell_angle_beta   90.00000000
_cell_angle_gamma   90.00000000
_symmetry_Int_Tables_number   1
_chemical_formula_structural   CoH4(CN)8
_chemical_formula_sum   'Co16 H64 C128 N128'
_cell_volume   5887.87409434
_cell_formula_units_Z   16
loop_
 _symmetry_equiv_pos_site_id
 _symmetry_equiv_pos_as_xyz
  1  'x, y, z'
loop_
 _atom_site_type_symbol
 _atom_site_label
 _atom_site_symmetry_multiplicity
 _atom_site_fract_x
 _atom_site_fract_y
 _atom_site_fract_z
 _atom_site_occupancy
  Co  Co0  1  0.00000000  0.15990000  0.15990000  1
  Co  Co1  1  0.00000000  0.55608000  0.55608000  1
  Co  Co2  1  0.08623000  0.34636000  0.06739000  1
  Co  Co3  1  0.16377000  0.15364000  0.56739000  1
  Co  Co4  1  0.25000000  0.34010000  0.65990000  1
  Co  Co5  1  0.25000000  0.94392000  0.05608000  1
  Co  Co6  1  0.33623000  0.43261000  0.84636000  1
  Co  Co7  1  0.41377000  0.93261000  0.65364000  1
  Co  Co8  1  0.50000000  0.44392000  0.44392000  1
  Co  Co9  1  0.50000000  0.84010000  0.84010000  1
  Co  Co10  1  0.58623000  0.65364000  0.93261000  1
  Co  Co11  1  0.66377000  0.84636000  0.43261000  1
  Co  Co12  1  0.75000000  0.05608000  0.94392000  1
  Co  Co13  1  0.75000000  0.65990000  0.34010000  1
  Co  Co14  1  0.83623000  0.56739000  0.15364000  1
  Co  Co15  1  0.91377000  0.06739000  0.34636000  1
  H  H16  1  0.00100000  0.24360000  0.54700000  1
  H  H17  1  0.01950000  0.73760000  0.55800000  1
  H  H18  1  0.02370000  0.83550000  0.18550000  1
  H  H19  1  0.03530000  0.65260000  0.97610000  1
  H  H20  1  0.09220000  0.38770000  0.24390000  1
  H  H21  1  0.09340000  0.03080000  0.81670000  1
  H  H22  1  0.09620000  0.81680000  0.61460000  1
  H  H23  1  0.10780000  0.27780000  0.76150000  1
  H  H24  1  0.14220000  0.22220000  0.26150000  1
  H  H25  1  0.15380000  0.68320000  0.11460000  1
  H  H26  1  0.15660000  0.46920000  0.31670000  1
  H  H27  1  0.15780000  0.11230000  0.74390000  1
  H  H28  1  0.21470000  0.84740000  0.47610000  1
  H  H29  1  0.22630000  0.66450000  0.68550000  1
  H  H30  1  0.23050000  0.76240000  0.05800000  1
  H  H31  1  0.24900000  0.25640000  0.04700000  1
  H  H32  1  0.25100000  0.95300000  0.74360000  1
  H  H33  1  0.26950000  0.94200000  0.23760000  1
  H  H34  1  0.27370000  0.31450000  0.33550000  1
  H  H35  1  0.28530000  0.52390000  0.15260000  1
  H  H36  1  0.34220000  0.25610000  0.88770000  1
  H  H37  1  0.34340000  0.68330000  0.53080000  1
  H  H38  1  0.34620000  0.88540000  0.31680000  1
  H  H39  1  0.35780000  0.73850000  0.77780000  1
  H  H40  1  0.39220000  0.23850000  0.72220000  1
  H  H41  1  0.40380000  0.38540000  0.18320000  1
  H  H42  1  0.40660000  0.18330000  0.96920000  1
  H  H43  1  0.40780000  0.75610000  0.61230000  1
  H  H44  1  0.46470000  0.02390000  0.34740000  1
  H  H45  1  0.47630000  0.81450000  0.16450000  1
  H  H46  1  0.48050000  0.44200000  0.26240000  1
  H  H47  1  0.49900000  0.45300000  0.75640000  1
  H  H48  1  0.50100000  0.75640000  0.45300000  1
  H  H49  1  0.51950000  0.26240000  0.44200000  1
  H  H50  1  0.52370000  0.16450000  0.81450000  1
  H  H51  1  0.53530000  0.34740000  0.02390000  1
  H  H52  1  0.59220000  0.61230000  0.75610000  1
  H  H53  1  0.59340000  0.96920000  0.18330000  1
  H  H54  1  0.59620000  0.18320000  0.38540000  1
  H  H55  1  0.60780000  0.72220000  0.23850000  1
  H  H56  1  0.64220000  0.77780000  0.73850000  1
  H  H57  1  0.65380000  0.31680000  0.88540000  1
  H  H58  1  0.65660000  0.53080000  0.68330000  1
  H  H59  1  0.65780000  0.88770000  0.25610000  1
  H  H60  1  0.71470000  0.15260000  0.52390000  1
  H  H61  1  0.72630000  0.33550000  0.31450000  1
  H  H62  1  0.73050000  0.23760000  0.94200000  1
  H  H63  1  0.74900000  0.74360000  0.95300000  1
  H  H64  1  0.75100000  0.04700000  0.25640000  1
  H  H65  1  0.76950000  0.05800000  0.76240000  1
  H  H66  1  0.77370000  0.68550000  0.66450000  1
  H  H67  1  0.78530000  0.47610000  0.84740000  1
  H  H68  1  0.84220000  0.74390000  0.11230000  1
  H  H69  1  0.84340000  0.31670000  0.46920000  1
  H  H70  1  0.84620000  0.11460000  0.68320000  1
  H  H71  1  0.85780000  0.26150000  0.22220000  1
  H  H72  1  0.89220000  0.76150000  0.27780000  1
  H  H73  1  0.90380000  0.61460000  0.81680000  1
  H  H74  1  0.90660000  0.81670000  0.03080000  1
  H  H75  1  0.90780000  0.24390000  0.38770000  1
  H  H76  1  0.96470000  0.97610000  0.65260000  1
  H  H77  1  0.97630000  0.18550000  0.83550000  1
  H  H78  1  0.98050000  0.55800000  0.73760000  1
  H  H79  1  0.99900000  0.54700000  0.24360000  1
  C  C80  1  0.00450000  0.00360000  0.67190000  1
  C  C81  1  0.02625000  0.06396000  0.55085000  1
  C  C82  1  0.03830000  0.27420000  0.56630000  1
  C  C83  1  0.03837000  0.10497000  0.44612000  1
  C  C84  1  0.04370000  0.05150000  0.62818000  1
  C  C85  1  0.05829000  0.14174000  0.37902000  1
  C  C86  1  0.06030000  0.72040000  0.58560000  1
  C  C87  1  0.06680000  0.82030000  0.16000000  1
  C  C88  1  0.07920000  0.03550000  0.76810000  1
  C  C89  1  0.09656000  0.36611000  0.60106000  1
  C  C90  1  0.10390000  0.94970000  0.13500000  1
  C  C91  1  0.10830000  0.76760000  0.61780000  1
  C  C92  1  0.10840000  0.19550000  0.29010000  1
  C  C93  1  0.11600000  0.87340000  0.12980000  1
  C  C94  1  0.11850000  0.08470000  0.72380000  1
  C  C95  1  0.12327000  0.43848000  0.62013000  1
  C  C96  1  0.12673000  0.06152000  0.12013000  1
  C  C97  1  0.13150000  0.41530000  0.22380000  1
  C  C98  1  0.13400000  0.62660000  0.62980000  1
  C  C99  1  0.14160000  0.30450000  0.79010000  1
  C  C100  1  0.14170000  0.73240000  0.11780000  1
  C  C101  1  0.14610000  0.55030000  0.63500000  1
  C  C102  1  0.15344000  0.13389000  0.10106000  1
  C  C103  1  0.17080000  0.46450000  0.26810000  1
  C  C104  1  0.18320000  0.67970000  0.66000000  1
  C  C105  1  0.18970000  0.77960000  0.08560000  1
  C  C106  1  0.19171000  0.35826000  0.87902000  1
  C  C107  1  0.20630000  0.44850000  0.12818000  1
  C  C108  1  0.21163000  0.39503000  0.94612000  1
  C  C109  1  0.21170000  0.22580000  0.06630000  1
  C  C110  1  0.22375000  0.43604000  0.05085000  1
  C  C111  1  0.24550000  0.49640000  0.17190000  1
  C  C112  1  0.25450000  0.82810000  0.50360000  1
  C  C113  1  0.27625000  0.94915000  0.56396000  1
  C  C114  1  0.28830000  0.93370000  0.77420000  1
  C  C115  1  0.28837000  0.05388000  0.60497000  1
  C  C116  1  0.29370000  0.87182000  0.55150000  1
  C  C117  1  0.30829000  0.12098000  0.64174000  1
  C  C118  1  0.31030000  0.91440000  0.22040000  1
  C  C119  1  0.31680000  0.34000000  0.32030000  1
  C  C120  1  0.32920000  0.73190000  0.53550000  1
  C  C121  1  0.34656000  0.89894000  0.86611000  1
  C  C122  1  0.35390000  0.36500000  0.44970000  1
  C  C123  1  0.35830000  0.88220000  0.26760000  1
  C  C124  1  0.35840000  0.20990000  0.69550000  1
  C  C125  1  0.36600000  0.37020000  0.37340000  1
  C  C126  1  0.36850000  0.77620000  0.58470000  1
  C  C127  1  0.37327000  0.87987000  0.93848000  1
  C  C128  1  0.37673000  0.37987000  0.56152000  1
  C  C129  1  0.38150000  0.27620000  0.91530000  1
  C  C130  1  0.38400000  0.87020000  0.12660000  1
  C  C131  1  0.39160000  0.70990000  0.80450000  1
  C  C132  1  0.39170000  0.38220000  0.23240000  1
  C  C133  1  0.39610000  0.86500000  0.05030000  1
  C  C134  1  0.40344000  0.39894000  0.63389000  1
  C  C135  1  0.42080000  0.23190000  0.96450000  1
  C  C136  1  0.43320000  0.84000000  0.17970000  1
  C  C137  1  0.43970000  0.41440000  0.27960000  1
  C  C138  1  0.44171000  0.62098000  0.85826000  1
  C  C139  1  0.45630000  0.37182000  0.94850000  1
  C  C140  1  0.46163000  0.55388000  0.89503000  1
  C  C141  1  0.46170000  0.43370000  0.72580000  1
  C  C142  1  0.47375000  0.44915000  0.93604000  1
  C  C143  1  0.49550000  0.32810000  0.99640000  1
  C  C144  1  0.50450000  0.99640000  0.32810000  1
  C  C145  1  0.52625000  0.93604000  0.44915000  1
  C  C146  1  0.53830000  0.72580000  0.43370000  1
  C  C147  1  0.53837000  0.89503000  0.55388000  1
  C  C148  1  0.54370000  0.94850000  0.37182000  1
  C  C149  1  0.55829000  0.85826000  0.62098000  1
  C  C150  1  0.56030000  0.27960000  0.41440000  1
  C  C151  1  0.56680000  0.17970000  0.84000000  1
  C  C152  1  0.57920000  0.96450000  0.23190000  1
  C  C153  1  0.59656000  0.63389000  0.39894000  1
  C  C154  1  0.60390000  0.05030000  0.86500000  1
  C  C155  1  0.60830000  0.23240000  0.38220000  1
  C  C156  1  0.60840000  0.80450000  0.70990000  1
  C  C157  1  0.61600000  0.12660000  0.87020000  1
  C  C158  1  0.61850000  0.91530000  0.27620000  1
  C  C159  1  0.62327000  0.56152000  0.37987000  1
  C  C160  1  0.62673000  0.93848000  0.87987000  1
  C  C161  1  0.63150000  0.58470000  0.77620000  1
  C  C162  1  0.63400000  0.37340000  0.37020000  1
  C  C163  1  0.64160000  0.69550000  0.20990000  1
  C  C164  1  0.64170000  0.26760000  0.88220000  1
  C  C165  1  0.64610000  0.44970000  0.36500000  1
  C  C166  1  0.65344000  0.86611000  0.89894000  1
  C  C167  1  0.67080000  0.53550000  0.73190000  1
  C  C168  1  0.68320000  0.32030000  0.34000000  1
  C  C169  1  0.68970000  0.22040000  0.91440000  1
  C  C170  1  0.69171000  0.64174000  0.12098000  1
  C  C171  1  0.70630000  0.55150000  0.87182000  1
  C  C172  1  0.71163000  0.60497000  0.05388000  1
  C  C173  1  0.71170000  0.77420000  0.93370000  1
  C  C174  1  0.72375000  0.56396000  0.94915000  1
  C  C175  1  0.74550000  0.50360000  0.82810000  1
  C  C176  1  0.75450000  0.17190000  0.49640000  1
  C  C177  1  0.77625000  0.05085000  0.43604000  1
  C  C178  1  0.78830000  0.06630000  0.22580000  1
  C  C179  1  0.78837000  0.94612000  0.39503000  1
  C  C180  1  0.79370000  0.12818000  0.44850000  1
  C  C181  1  0.80829000  0.87902000  0.35826000  1
  C  C182  1  0.81030000  0.08560000  0.77960000  1
  C  C183  1  0.81680000  0.66000000  0.67970000  1
  C  C184  1  0.82920000  0.26810000  0.46450000  1
  C  C185  1  0.84656000  0.10106000  0.13389000  1
  C  C186  1  0.85390000  0.63500000  0.55030000  1
  C  C187  1  0.85830000  0.11780000  0.73240000  1
  C  C188  1  0.85840000  0.79010000  0.30450000  1
  C  C189  1  0.86600000  0.62980000  0.62660000  1
  C  C190  1  0.86850000  0.22380000  0.41530000  1
  C  C191  1  0.87327000  0.12013000  0.06152000  1
  C  C192  1  0.87673000  0.62013000  0.43848000  1
  C  C193  1  0.88150000  0.72380000  0.08470000  1
  C  C194  1  0.88400000  0.12980000  0.87340000  1
  C  C195  1  0.89160000  0.29010000  0.19550000  1
  C  C196  1  0.89170000  0.61780000  0.76760000  1
  C  C197  1  0.89610000  0.13500000  0.94970000  1
  C  C198  1  0.90344000  0.60106000  0.36611000  1
  C  C199  1  0.92080000  0.76810000  0.03550000  1
  C  C200  1  0.93320000  0.16000000  0.82030000  1
  C  C201  1  0.93970000  0.58560000  0.72040000  1
  C  C202  1  0.94171000  0.37902000  0.14174000  1
  C  C203  1  0.95630000  0.62818000  0.05150000  1
  C  C204  1  0.96163000  0.44612000  0.10497000  1
  C  C205  1  0.96170000  0.56630000  0.27420000  1
  C  C206  1  0.97375000  0.55085000  0.06396000  1
  C  C207  1  0.99550000  0.67190000  0.00360000  1
  N  N208  1  0.01160000  0.13140000  0.32239000  1
  N  N209  1  0.02239000  0.44567000  0.06236000  1
  N  N210  1  0.02370000  0.99630000  0.74330000  1
  N  N211  1  0.02820000  0.34538000  0.57390000  1
  N  N212  1  0.03116000  0.51438000  0.03533000  1
  N  N213  1  0.04223000  0.98362000  0.15928000  1
  N  N214  1  0.04401000  0.16739000  0.26486000  1
  N  N215  1  0.05710000  0.05711000  0.14801000  1
  N  N216  1  0.07118000  0.10880000  0.51077000  1
  N  N217  1  0.07162000  0.64738000  0.59330000  1
  N  N218  1  0.08020000  0.74930000  0.15300000  1
  N  N219  1  0.09090000  0.50420000  0.61033000  1
  N  N220  1  0.10140000  0.09309000  0.65400000  1
  N  N221  1  0.10599000  0.24997000  0.58842000  1
  N  N222  1  0.10614000  0.18899000  0.11148000  1
  N  N223  1  0.11999000  0.18116000  0.36286000  1
  N  N224  1  0.13001000  0.31884000  0.86286000  1
  N  N225  1  0.14386000  0.31101000  0.61148000  1
  N  N226  1  0.14401000  0.25003000  0.08842000  1
  N  N227  1  0.14860000  0.40691000  0.15400000  1
  N  N228  1  0.15910000  0.99580000  0.11033000  1
  N  N229  1  0.16980000  0.75070000  0.65300000  1
  N  N230  1  0.17838000  0.85262000  0.09330000  1
  N  N231  1  0.17882000  0.39120000  0.01077000  1
  N  N232  1  0.19290000  0.44289000  0.64801000  1
  N  N233  1  0.20599000  0.33261000  0.76486000  1
  N  N234  1  0.20777000  0.51638000  0.65928000  1
  N  N235  1  0.21884000  0.98562000  0.53533000  1
  N  N236  1  0.22180000  0.15462000  0.07390000  1
  N  N237  1  0.22630000  0.50370000  0.24330000  1
  N  N238  1  0.22761000  0.05433000  0.56236000  1
  N  N239  1  0.23840000  0.36860000  0.82239000  1
  N  N240  1  0.26160000  0.17761000  0.63140000  1
  N  N241  1  0.27239000  0.43764000  0.94567000  1
  N  N242  1  0.27370000  0.75670000  0.49630000  1
  N  N243  1  0.27820000  0.92610000  0.84538000  1
  N  N244  1  0.28116000  0.46467000  0.01438000  1
  N  N245  1  0.29223000  0.34072000  0.48362000  1
  N  N246  1  0.29401000  0.23514000  0.66739000  1
  N  N247  1  0.30710000  0.35199000  0.55711000  1
  N  N248  1  0.32118000  0.98923000  0.60880000  1
  N  N249  1  0.32162000  0.90670000  0.14738000  1
  N  N250  1  0.33020000  0.34700000  0.24930000  1
  N  N251  1  0.34090000  0.88967000  0.00420000  1
  N  N252  1  0.35140000  0.84600000  0.59309000  1
  N  N253  1  0.35599000  0.91158000  0.74997000  1
  N  N254  1  0.35614000  0.38852000  0.68899000  1
  N  N255  1  0.36999000  0.13714000  0.68116000  1
  N  N256  1  0.38001000  0.63714000  0.81884000  1
  N  N257  1  0.39386000  0.88852000  0.81101000  1
  N  N258  1  0.39401000  0.41158000  0.75003000  1
  N  N259  1  0.39860000  0.34600000  0.90691000  1
  N  N260  1  0.40910000  0.38967000  0.49580000  1
  N  N261  1  0.41980000  0.84700000  0.25070000  1
  N  N262  1  0.42838000  0.40670000  0.35262000  1
  N  N263  1  0.42882000  0.48923000  0.89120000  1
  N  N264  1  0.44290000  0.85199000  0.94289000  1
  N  N265  1  0.45599000  0.73514000  0.83261000  1
  N  N266  1  0.45777000  0.84072000  0.01638000  1
  N  N267  1  0.46884000  0.96467000  0.48562000  1
  N  N268  1  0.47180000  0.42610000  0.65462000  1
  N  N269  1  0.47630000  0.25670000  0.00370000  1
  N  N270  1  0.47761000  0.93764000  0.55433000  1
  N  N271  1  0.48840000  0.67761000  0.86860000  1
  N  N272  1  0.51160000  0.86860000  0.67761000  1
  N  N273  1  0.52239000  0.55433000  0.93764000  1
  N  N274  1  0.52370000  0.00370000  0.25670000  1
  N  N275  1  0.52820000  0.65462000  0.42610000  1
  N  N276  1  0.53116000  0.48562000  0.96467000  1
  N  N277  1  0.54223000  0.01638000  0.84072000  1
  N  N278  1  0.54401000  0.83261000  0.73514000  1
  N  N279  1  0.55710000  0.94289000  0.85199000  1
  N  N280  1  0.57118000  0.89120000  0.48923000  1
  N  N281  1  0.57162000  0.35262000  0.40670000  1
  N  N282  1  0.58020000  0.25070000  0.84700000  1
  N  N283  1  0.59090000  0.49580000  0.38967000  1
  N  N284  1  0.60140000  0.90691000  0.34600000  1
  N  N285  1  0.60599000  0.75003000  0.41158000  1
  N  N286  1  0.60614000  0.81101000  0.88852000  1
  N  N287  1  0.61999000  0.81884000  0.63714000  1
  N  N288  1  0.63001000  0.68116000  0.13714000  1
  N  N289  1  0.64386000  0.68899000  0.38852000  1
  N  N290  1  0.64401000  0.74997000  0.91158000  1
  N  N291  1  0.64860000  0.59309000  0.84600000  1
  N  N292  1  0.65910000  0.00420000  0.88967000  1
  N  N293  1  0.66980000  0.24930000  0.34700000  1
  N  N294  1  0.67838000  0.14738000  0.90670000  1
  N  N295  1  0.67882000  0.60880000  0.98923000  1
  N  N296  1  0.69290000  0.55711000  0.35199000  1
  N  N297  1  0.70599000  0.66739000  0.23514000  1
  N  N298  1  0.70777000  0.48362000  0.34072000  1
  N  N299  1  0.71884000  0.01438000  0.46467000  1
  N  N300  1  0.72180000  0.84538000  0.92610000  1
  N  N301  1  0.72630000  0.49630000  0.75670000  1
  N  N302  1  0.72761000  0.94567000  0.43764000  1
  N  N303  1  0.73840000  0.63140000  0.17761000  1
  N  N304  1  0.76160000  0.82239000  0.36860000  1
  N  N305  1  0.77239000  0.56236000  0.05433000  1
  N  N306  1  0.77370000  0.24330000  0.50370000  1
  N  N307  1  0.77820000  0.07390000  0.15462000  1
  N  N308  1  0.78116000  0.53533000  0.98562000  1
  N  N309  1  0.79223000  0.65928000  0.51638000  1
  N  N310  1  0.79401000  0.76486000  0.33261000  1
  N  N311  1  0.80710000  0.64801000  0.44289000  1
  N  N312  1  0.82118000  0.01077000  0.39120000  1
  N  N313  1  0.82162000  0.09330000  0.85262000  1
  N  N314  1  0.83020000  0.65300000  0.75070000  1
  N  N315  1  0.84090000  0.11033000  0.99580000  1
  N  N316  1  0.85140000  0.15400000  0.40691000  1
  N  N317  1  0.85599000  0.08842000  0.25003000  1
  N  N318  1  0.85614000  0.61148000  0.31101000  1
  N  N319  1  0.86999000  0.86286000  0.31884000  1
  N  N320  1  0.88001000  0.36286000  0.18116000  1
  N  N321  1  0.89386000  0.11148000  0.18899000  1
  N  N322  1  0.89401000  0.58842000  0.24997000  1
  N  N323  1  0.89860000  0.65400000  0.09309000  1
  N  N324  1  0.90910000  0.61033000  0.50420000  1
  N  N325  1  0.91980000  0.15300000  0.74930000  1
  N  N326  1  0.92838000  0.59330000  0.64738000  1
  N  N327  1  0.92882000  0.51077000  0.10880000  1
  N  N328  1  0.94290000  0.14801000  0.05711000  1
  N  N329  1  0.95599000  0.26486000  0.16739000  1
  N  N330  1  0.95777000  0.15928000  0.98362000  1
  N  N331  1  0.96884000  0.03533000  0.51438000  1
  N  N332  1  0.97180000  0.57390000  0.34538000  1
  N  N333  1  0.97630000  0.74330000  0.99630000  1
  N  N334  1  0.97761000  0.06236000  0.44567000  1
  N  N335  1  0.98840000  0.32239000  0.13140000  1
