# generated using pymatgen
data_Mn4H8C24N32ClO4
_symmetry_space_group_name_H-M   'P 1'
_cell_length_a   19.11580000
_cell_length_b   19.11580000
_cell_length_c   19.11580000
_cell_angle_alpha   90.00000000
_cell_angle_beta   90.00000000
_cell_angle_gamma   90.00000000
_symmetry_Int_Tables_number   1
_chemical_formula_structural   Mn4H8C24N32ClO4
_chemical_formula_sum   'Mn12 H24 C72 N96 Cl3 O12'
_cell_volume   6985.17730232
_cell_formula_units_Z   3
loop_
 _symmetry_equiv_pos_site_id
 _symmetry_equiv_pos_as_xyz
  1  'x, y, z'
loop_
 _atom_site_type_symbol
 _atom_site_label
 _atom_site_symmetry_multiplicity
 _atom_site_fract_x
 _atom_site_fract_y
 _atom_site_fract_z
 _atom_site_occupancy
  Mn  Mn0  1  0.00000000  0.14310000  0.50000000  1
  Mn  Mn1  1  0.00000000  0.50000000  0.14310000  1
  Mn  Mn2  1  0.00000000  0.50000000  0.85690000  1
  Mn  Mn3  1  0.00000000  0.85690000  0.50000000  1
  Mn  Mn4  1  0.14310000  0.00000000  0.50000000  1
  Mn  Mn5  1  0.14310000  0.50000000  0.00000000  1
  Mn  Mn6  1  0.50000000  0.00000000  0.14310000  1
  Mn  Mn7  1  0.50000000  0.00000000  0.85690000  1
  Mn  Mn8  1  0.50000000  0.14310000  0.00000000  1
  Mn  Mn9  1  0.50000000  0.85690000  0.00000000  1
  Mn  Mn10  1  0.85690000  0.00000000  0.50000000  1
  Mn  Mn11  1  0.85690000  0.50000000  0.00000000  1
  H  H12  1  0.11030000  0.25930000  0.25930000  1
  H  H13  1  0.11030000  0.25930000  0.74070000  1
  H  H14  1  0.11030000  0.74070000  0.25930000  1
  H  H15  1  0.11030000  0.74070000  0.74070000  1
  H  H16  1  0.25930000  0.11030000  0.25930000  1
  H  H17  1  0.25930000  0.11030000  0.74070000  1
  H  H18  1  0.25930000  0.25930000  0.11030000  1
  H  H19  1  0.25930000  0.25930000  0.88970000  1
  H  H20  1  0.25930000  0.74070000  0.11030000  1
  H  H21  1  0.25930000  0.74070000  0.88970000  1
  H  H22  1  0.25930000  0.88970000  0.25930000  1
  H  H23  1  0.25930000  0.88970000  0.74070000  1
  H  H24  1  0.74070000  0.11030000  0.25930000  1
  H  H25  1  0.74070000  0.11030000  0.74070000  1
  H  H26  1  0.74070000  0.25930000  0.11030000  1
  H  H27  1  0.74070000  0.25930000  0.88970000  1
  H  H28  1  0.74070000  0.74070000  0.11030000  1
  H  H29  1  0.74070000  0.74070000  0.88970000  1
  H  H30  1  0.74070000  0.88970000  0.25930000  1
  H  H31  1  0.74070000  0.88970000  0.74070000  1
  H  H32  1  0.88970000  0.25930000  0.25930000  1
  H  H33  1  0.88970000  0.25930000  0.74070000  1
  H  H34  1  0.88970000  0.74070000  0.25930000  1
  H  H35  1  0.88970000  0.74070000  0.74070000  1
  C  C36  1  0.14980000  0.14980000  0.33290000  1
  C  C37  1  0.14980000  0.14980000  0.66710000  1
  C  C38  1  0.14980000  0.33290000  0.14980000  1
  C  C39  1  0.14980000  0.33290000  0.85020000  1
  C  C40  1  0.14980000  0.66710000  0.14980000  1
  C  C41  1  0.14980000  0.66710000  0.85020000  1
  C  C42  1  0.14980000  0.85020000  0.33290000  1
  C  C43  1  0.14980000  0.85020000  0.66710000  1
  C  C44  1  0.15050000  0.23990000  0.23990000  1
  C  C45  1  0.15050000  0.23990000  0.76010000  1
  C  C46  1  0.15050000  0.76010000  0.23990000  1
  C  C47  1  0.15050000  0.76010000  0.76010000  1
  C  C48  1  0.18073000  0.18073000  0.26970000  1
  C  C49  1  0.18073000  0.18073000  0.73030000  1
  C  C50  1  0.18073000  0.26970000  0.18073000  1
  C  C51  1  0.18073000  0.26970000  0.81927000  1
  C  C52  1  0.18073000  0.73030000  0.18073000  1
  C  C53  1  0.18073000  0.73030000  0.81927000  1
  C  C54  1  0.18073000  0.81927000  0.26970000  1
  C  C55  1  0.18073000  0.81927000  0.73030000  1
  C  C56  1  0.23990000  0.15050000  0.23990000  1
  C  C57  1  0.23990000  0.15050000  0.76010000  1
  C  C58  1  0.23990000  0.23990000  0.15050000  1
  C  C59  1  0.23990000  0.23990000  0.84950000  1
  C  C60  1  0.23990000  0.76010000  0.15050000  1
  C  C61  1  0.23990000  0.76010000  0.84950000  1
  C  C62  1  0.23990000  0.84950000  0.23990000  1
  C  C63  1  0.23990000  0.84950000  0.76010000  1
  C  C64  1  0.26970000  0.18073000  0.18073000  1
  C  C65  1  0.26970000  0.18073000  0.81927000  1
  C  C66  1  0.26970000  0.81927000  0.18073000  1
  C  C67  1  0.26970000  0.81927000  0.81927000  1
  C  C68  1  0.33290000  0.14980000  0.14980000  1
  C  C69  1  0.33290000  0.14980000  0.85020000  1
  C  C70  1  0.33290000  0.85020000  0.14980000  1
  C  C71  1  0.33290000  0.85020000  0.85020000  1
  C  C72  1  0.66710000  0.14980000  0.14980000  1
  C  C73  1  0.66710000  0.14980000  0.85020000  1
  C  C74  1  0.66710000  0.85020000  0.14980000  1
  C  C75  1  0.66710000  0.85020000  0.85020000  1
  C  C76  1  0.73030000  0.18073000  0.18073000  1
  C  C77  1  0.73030000  0.18073000  0.81927000  1
  C  C78  1  0.73030000  0.81927000  0.18073000  1
  C  C79  1  0.73030000  0.81927000  0.81927000  1
  C  C80  1  0.76010000  0.15050000  0.23990000  1
  C  C81  1  0.76010000  0.15050000  0.76010000  1
  C  C82  1  0.76010000  0.23990000  0.15050000  1
  C  C83  1  0.76010000  0.23990000  0.84950000  1
  C  C84  1  0.76010000  0.76010000  0.15050000  1
  C  C85  1  0.76010000  0.76010000  0.84950000  1
  C  C86  1  0.76010000  0.84950000  0.23990000  1
  C  C87  1  0.76010000  0.84950000  0.76010000  1
  C  C88  1  0.81927000  0.18073000  0.26970000  1
  C  C89  1  0.81927000  0.18073000  0.73030000  1
  C  C90  1  0.81927000  0.26970000  0.18073000  1
  C  C91  1  0.81927000  0.26970000  0.81927000  1
  C  C92  1  0.81927000  0.73030000  0.18073000  1
  C  C93  1  0.81927000  0.73030000  0.81927000  1
  C  C94  1  0.81927000  0.81927000  0.26970000  1
  C  C95  1  0.81927000  0.81927000  0.73030000  1
  C  C96  1  0.84950000  0.23990000  0.23990000  1
  C  C97  1  0.84950000  0.23990000  0.76010000  1
  C  C98  1  0.84950000  0.76010000  0.23990000  1
  C  C99  1  0.84950000  0.76010000  0.76010000  1
  C  C100  1  0.85020000  0.14980000  0.33290000  1
  C  C101  1  0.85020000  0.14980000  0.66710000  1
  C  C102  1  0.85020000  0.33290000  0.14980000  1
  C  C103  1  0.85020000  0.33290000  0.85020000  1
  C  C104  1  0.85020000  0.66710000  0.14980000  1
  C  C105  1  0.85020000  0.66710000  0.85020000  1
  C  C106  1  0.85020000  0.85020000  0.33290000  1
  C  C107  1  0.85020000  0.85020000  0.66710000  1
  N  N108  1  0.08336000  0.13224000  0.41933000  1
  N  N109  1  0.08336000  0.13224000  0.58067000  1
  N  N110  1  0.08336000  0.41933000  0.13224000  1
  N  N111  1  0.08336000  0.41933000  0.86776000  1
  N  N112  1  0.08336000  0.58067000  0.13224000  1
  N  N113  1  0.08336000  0.58067000  0.86776000  1
  N  N114  1  0.08336000  0.86776000  0.41933000  1
  N  N115  1  0.08336000  0.86776000  0.58067000  1
  N  N116  1  0.09274000  0.17516000  0.36509000  1
  N  N117  1  0.09274000  0.17516000  0.63491000  1
  N  N118  1  0.09274000  0.36509000  0.17516000  1
  N  N119  1  0.09274000  0.36509000  0.82484000  1
  N  N120  1  0.09274000  0.63491000  0.17516000  1
  N  N121  1  0.09274000  0.63491000  0.82484000  1
  N  N122  1  0.09274000  0.82484000  0.36509000  1
  N  N123  1  0.09274000  0.82484000  0.63491000  1
  N  N124  1  0.13224000  0.08336000  0.41933000  1
  N  N125  1  0.13224000  0.08336000  0.58067000  1
  N  N126  1  0.13224000  0.41933000  0.08336000  1
  N  N127  1  0.13224000  0.41933000  0.91664000  1
  N  N128  1  0.13224000  0.58067000  0.08336000  1
  N  N129  1  0.13224000  0.58067000  0.91664000  1
  N  N130  1  0.13224000  0.91664000  0.41933000  1
  N  N131  1  0.13224000  0.91664000  0.58067000  1
  N  N132  1  0.17516000  0.09274000  0.36509000  1
  N  N133  1  0.17516000  0.09274000  0.63491000  1
  N  N134  1  0.17516000  0.36509000  0.09274000  1
  N  N135  1  0.17516000  0.36509000  0.90726000  1
  N  N136  1  0.17516000  0.63491000  0.09274000  1
  N  N137  1  0.17516000  0.63491000  0.90726000  1
  N  N138  1  0.17516000  0.90726000  0.36509000  1
  N  N139  1  0.17516000  0.90726000  0.63491000  1
  N  N140  1  0.36509000  0.09274000  0.17516000  1
  N  N141  1  0.36509000  0.09274000  0.82484000  1
  N  N142  1  0.36509000  0.17516000  0.09274000  1
  N  N143  1  0.36509000  0.17516000  0.90726000  1
  N  N144  1  0.36509000  0.82484000  0.09274000  1
  N  N145  1  0.36509000  0.82484000  0.90726000  1
  N  N146  1  0.36509000  0.90726000  0.17516000  1
  N  N147  1  0.36509000  0.90726000  0.82484000  1
  N  N148  1  0.41933000  0.08336000  0.13224000  1
  N  N149  1  0.41933000  0.08336000  0.86776000  1
  N  N150  1  0.41933000  0.13224000  0.08336000  1
  N  N151  1  0.41933000  0.13224000  0.91664000  1
  N  N152  1  0.41933000  0.86776000  0.08336000  1
  N  N153  1  0.41933000  0.86776000  0.91664000  1
  N  N154  1  0.41933000  0.91664000  0.13224000  1
  N  N155  1  0.41933000  0.91664000  0.86776000  1
  N  N156  1  0.58067000  0.08336000  0.13224000  1
  N  N157  1  0.58067000  0.08336000  0.86776000  1
  N  N158  1  0.58067000  0.13224000  0.08336000  1
  N  N159  1  0.58067000  0.13224000  0.91664000  1
  N  N160  1  0.58067000  0.86776000  0.08336000  1
  N  N161  1  0.58067000  0.86776000  0.91664000  1
  N  N162  1  0.58067000  0.91664000  0.13224000  1
  N  N163  1  0.58067000  0.91664000  0.86776000  1
  N  N164  1  0.63491000  0.09274000  0.17516000  1
  N  N165  1  0.63491000  0.09274000  0.82484000  1
  N  N166  1  0.63491000  0.17516000  0.09274000  1
  N  N167  1  0.63491000  0.17516000  0.90726000  1
  N  N168  1  0.63491000  0.82484000  0.09274000  1
  N  N169  1  0.63491000  0.82484000  0.90726000  1
  N  N170  1  0.63491000  0.90726000  0.17516000  1
  N  N171  1  0.63491000  0.90726000  0.82484000  1
  N  N172  1  0.82484000  0.09274000  0.36509000  1
  N  N173  1  0.82484000  0.09274000  0.63491000  1
  N  N174  1  0.82484000  0.36509000  0.09274000  1
  N  N175  1  0.82484000  0.36509000  0.90726000  1
  N  N176  1  0.82484000  0.63491000  0.09274000  1
  N  N177  1  0.82484000  0.63491000  0.90726000  1
  N  N178  1  0.82484000  0.90726000  0.36509000  1
  N  N179  1  0.82484000  0.90726000  0.63491000  1
  N  N180  1  0.86776000  0.08336000  0.41933000  1
  N  N181  1  0.86776000  0.08336000  0.58067000  1
  N  N182  1  0.86776000  0.41933000  0.08336000  1
  N  N183  1  0.86776000  0.41933000  0.91664000  1
  N  N184  1  0.86776000  0.58067000  0.08336000  1
  N  N185  1  0.86776000  0.58067000  0.91664000  1
  N  N186  1  0.86776000  0.91664000  0.41933000  1
  N  N187  1  0.86776000  0.91664000  0.58067000  1
  N  N188  1  0.90726000  0.17516000  0.36509000  1
  N  N189  1  0.90726000  0.17516000  0.63491000  1
  N  N190  1  0.90726000  0.36509000  0.17516000  1
  N  N191  1  0.90726000  0.36509000  0.82484000  1
  N  N192  1  0.90726000  0.63491000  0.17516000  1
  N  N193  1  0.90726000  0.63491000  0.82484000  1
  N  N194  1  0.90726000  0.82484000  0.36509000  1
  N  N195  1  0.90726000  0.82484000  0.63491000  1
  N  N196  1  0.91664000  0.13224000  0.41933000  1
  N  N197  1  0.91664000  0.13224000  0.58067000  1
  N  N198  1  0.91664000  0.41933000  0.13224000  1
  N  N199  1  0.91664000  0.41933000  0.86776000  1
  N  N200  1  0.91664000  0.58067000  0.13224000  1
  N  N201  1  0.91664000  0.58067000  0.86776000  1
  N  N202  1  0.91664000  0.86776000  0.41933000  1
  N  N203  1  0.91664000  0.86776000  0.58067000  1
  Cl  Cl204  1  0.00000000  0.00000000  0.50000000  1
  Cl  Cl205  1  0.00000000  0.50000000  0.00000000  1
  Cl  Cl206  1  0.50000000  0.00000000  0.00000000  1
  O  O207  1  0.00000000  0.25400000  0.50000000  1
  O  O208  1  0.00000000  0.50000000  0.25400000  1
  O  O209  1  0.00000000  0.50000000  0.74600000  1
  O  O210  1  0.00000000  0.74600000  0.50000000  1
  O  O211  1  0.25400000  0.00000000  0.50000000  1
  O  O212  1  0.25400000  0.50000000  0.00000000  1
  O  O213  1  0.50000000  0.00000000  0.25400000  1
  O  O214  1  0.50000000  0.00000000  0.74600000  1
  O  O215  1  0.50000000  0.25400000  0.00000000  1
  O  O216  1  0.50000000  0.74600000  0.00000000  1
  O  O217  1  0.74600000  0.00000000  0.50000000  1
  O  O218  1  0.74600000  0.50000000  0.00000000  1
