# generated using pymatgen
data_ZnH13C23N3O4
_symmetry_space_group_name_H-M   'P 1'
_cell_length_a   11.58570000
_cell_length_b   15.67400000
_cell_length_c   18.11800000
_cell_angle_alpha   90.00000000
_cell_angle_beta   90.00000000
_cell_angle_gamma   90.00000000
_symmetry_Int_Tables_number   1
_chemical_formula_structural   ZnH13C23N3O4
_chemical_formula_sum   'Zn4 H52 C92 N12 O16'
_cell_volume   3290.12483529
_cell_formula_units_Z   4
loop_
 _symmetry_equiv_pos_site_id
 _symmetry_equiv_pos_as_xyz
  1  'x, y, z'
loop_
 _atom_site_type_symbol
 _atom_site_label
 _atom_site_symmetry_multiplicity
 _atom_site_fract_x
 _atom_site_fract_y
 _atom_site_fract_z
 _atom_site_occupancy
  Zn  Zn0  1  0.25074000  0.50719000  0.77415000  1
  Zn  Zn1  1  0.25777000  0.50573000  0.93552000  1
  Zn  Zn2  1  0.75074000  0.49281000  0.22585000  1
  Zn  Zn3  1  0.75777000  0.49427000  0.06448000  1
  H  H4  1  0.04000000  0.12450000  0.06760000  1
  H  H5  1  0.05480000  0.84620000  0.26260000  1
  H  H6  1  0.06190000  0.99600000  0.17620000  1
  H  H7  1  0.06840000  0.66860000  0.05310000  1
  H  H8  1  0.07410000  0.26130000  0.95050000  1
  H  H9  1  0.07560000  0.33040000  0.24010000  1
  H  H10  1  0.08620000  0.75300000  0.76470000  1
  H  H11  1  0.08650000  0.47930000  0.52220000  1
  H  H12  1  0.08860000  0.48760000  0.64740000  1
  H  H13  1  0.08980000  0.47730000  0.18240000  1
  H  H14  1  0.09260000  0.49140000  0.05840000  1
  H  H15  1  0.18550000  0.78850000  0.06440000  1
  H  H16  1  0.20410000  0.22050000  0.23770000  1
  H  H17  1  0.31090000  0.20890000  0.05860000  1
  H  H18  1  0.33740000  0.78560000  0.24690000  1
  H  H19  1  0.41750000  0.76150000  0.93900000  1
  H  H20  1  0.42120000  0.33130000  0.05630000  1
  H  H21  1  0.42220000  0.51920000  0.64520000  1
  H  H22  1  0.42240000  0.51130000  0.51990000  1
  H  H23  1  0.42500000  0.52210000  0.06080000  1
  H  H24  1  0.42780000  0.50970000  0.18430000  1
  H  H25  1  0.43020000  0.26620000  0.75030000  1
  H  H26  1  0.45250000  0.66690000  0.24090000  1
  H  H27  1  0.45270000  0.98980000  0.14200000  1
  H  H28  1  0.46340000  0.85930000  0.04850000  1
  H  H29  1  0.47520000  0.12330000  0.23810000  1
  H  H30  1  0.54000000  0.87550000  0.93240000  1
  H  H31  1  0.55480000  0.15380000  0.73740000  1
  H  H32  1  0.56190000  0.00400000  0.82380000  1
  H  H33  1  0.56840000  0.33140000  0.94690000  1
  H  H34  1  0.57410000  0.73870000  0.04950000  1
  H  H35  1  0.57560000  0.66960000  0.75990000  1
  H  H36  1  0.58620000  0.24700000  0.23530000  1
  H  H37  1  0.58650000  0.52070000  0.47780000  1
  H  H38  1  0.58860000  0.51240000  0.35260000  1
  H  H39  1  0.58980000  0.52270000  0.81760000  1
  H  H40  1  0.59260000  0.50860000  0.94160000  1
  H  H41  1  0.68550000  0.21150000  0.93560000  1
  H  H42  1  0.70410000  0.77950000  0.76230000  1
  H  H43  1  0.81090000  0.79110000  0.94140000  1
  H  H44  1  0.83740000  0.21440000  0.75310000  1
  H  H45  1  0.91750000  0.23850000  0.06100000  1
  H  H46  1  0.92120000  0.66870000  0.94370000  1
  H  H47  1  0.92220000  0.48080000  0.35480000  1
  H  H48  1  0.92240000  0.48870000  0.48010000  1
  H  H49  1  0.92500000  0.47790000  0.93920000  1
  H  H50  1  0.92780000  0.49030000  0.81570000  1
  H  H51  1  0.93020000  0.73380000  0.24970000  1
  H  H52  1  0.95250000  0.33310000  0.75910000  1
  H  H53  1  0.95270000  0.01020000  0.85800000  1
  H  H54  1  0.96340000  0.14070000  0.95150000  1
  H  H55  1  0.97520000  0.87670000  0.76190000  1
  C  C56  1  0.02617000  0.25244000  0.91003000  1
  C  C57  1  0.02710000  0.70380000  0.86007000  1
  C  C58  1  0.03059000  0.31465000  0.85554000  1
  C  C59  1  0.03440000  0.76330000  0.80290000  1
  C  C60  1  0.04500000  0.16490000  0.10500000  1
  C  C61  1  0.05390000  0.81370000  0.21960000  1
  C  C62  1  0.06350000  0.70430000  0.09400000  1
  C  C63  1  0.06630000  0.28820000  0.20450000  1
  C  C64  1  0.09973000  0.39363000  0.85096000  1
  C  C65  1  0.10590000  0.62880000  0.85960000  1
  C  C66  1  0.12350000  0.83358000  0.16036000  1
  C  C67  1  0.12680000  0.14854000  0.16041000  1
  C  C68  1  0.13160000  0.77700000  0.10116000  1
  C  C69  1  0.14090000  0.99380000  0.16730000  1
  C  C70  1  0.14150000  0.21930000  0.20550000  1
  C  C71  1  0.15690000  0.48788000  0.54571000  1
  C  C72  1  0.15770000  0.49252000  0.62163000  1
  C  C73  1  0.16050000  0.48764000  0.15973000  1
  C  C74  1  0.16250000  0.49489000  0.08348000  1
  C  C75  1  0.18920000  0.91440000  0.16310000  1
  C  C76  1  0.19390000  0.06730000  0.16010000  1
  C  C77  1  0.25391000  0.49520000  0.50273000  1
  C  C78  1  0.25486000  0.49058000  0.42146000  1
  C  C79  1  0.25873000  0.48766000  0.28633000  1
  C  C80  1  0.25900000  0.49491000  0.20510000  1
  C  C81  1  0.30820000  0.91010000  0.15770000  1
  C  C82  1  0.31560000  0.07410000  0.14500000  1
  C  C83  1  0.35220000  0.50647000  0.54447000  1
  C  C84  1  0.35280000  0.51102000  0.62040000  1
  C  C85  1  0.35510000  0.51280000  0.08480000  1
  C  C86  1  0.35660000  0.50625000  0.16084000  1
  C  C87  1  0.37080000  0.21500000  0.09240000  1
  C  C88  1  0.37290000  0.99180000  0.14720000  1
  C  C89  1  0.38490000  0.77694000  0.20620000  1
  C  C90  1  0.38680000  0.83547000  0.14802000  1
  C  C91  1  0.39000000  0.15070000  0.14238000  1
  C  C92  1  0.40060000  0.62680000  0.84830000  1
  C  C93  1  0.40650000  0.38320000  0.85550000  1
  C  C94  1  0.43690000  0.28830000  0.09020000  1
  C  C95  1  0.45580000  0.70517000  0.20170000  1
  C  C96  1  0.45960000  0.82130000  0.08790000  1
  C  C97  1  0.46790000  0.16260000  0.19990000  1
  C  C98  1  0.47050000  0.76560000  0.90060000  1
  C  C99  1  0.47820000  0.70238000  0.84665000  1
  C  C100  1  0.48360000  0.25565000  0.78754000  1
  C  C101  1  0.48690000  0.31190000  0.84747000  1
  C  C102  1  0.52617000  0.74756000  0.08997000  1
  C  C103  1  0.52710000  0.29620000  0.13993000  1
  C  C104  1  0.53059000  0.68535000  0.14446000  1
  C  C105  1  0.53440000  0.23670000  0.19710000  1
  C  C106  1  0.54500000  0.83510000  0.89500000  1
  C  C107  1  0.55390000  0.18630000  0.78040000  1
  C  C108  1  0.56350000  0.29570000  0.90600000  1
  C  C109  1  0.56630000  0.71180000  0.79550000  1
  C  C110  1  0.59973000  0.60637000  0.14904000  1
  C  C111  1  0.60590000  0.37120000  0.14040000  1
  C  C112  1  0.62350000  0.16642000  0.83964000  1
  C  C113  1  0.62680000  0.85146000  0.83959000  1
  C  C114  1  0.63160000  0.22300000  0.89884000  1
  C  C115  1  0.64090000  0.00620000  0.83270000  1
  C  C116  1  0.64150000  0.78070000  0.79450000  1
  C  C117  1  0.65690000  0.51212000  0.45429000  1
  C  C118  1  0.65770000  0.50748000  0.37837000  1
  C  C119  1  0.66050000  0.51236000  0.84027000  1
  C  C120  1  0.66250000  0.50511000  0.91652000  1
  C  C121  1  0.68920000  0.08560000  0.83690000  1
  C  C122  1  0.69390000  0.93270000  0.83990000  1
  C  C123  1  0.75391000  0.50480000  0.49727000  1
  C  C124  1  0.75486000  0.50942000  0.57854000  1
  C  C125  1  0.75873000  0.51234000  0.71367000  1
  C  C126  1  0.75900000  0.50509000  0.79490000  1
  C  C127  1  0.80820000  0.08990000  0.84230000  1
  C  C128  1  0.81560000  0.92590000  0.85500000  1
  C  C129  1  0.85220000  0.49353000  0.45553000  1
  C  C130  1  0.85280000  0.48898000  0.37960000  1
  C  C131  1  0.85510000  0.48720000  0.91520000  1
  C  C132  1  0.85660000  0.49375000  0.83916000  1
  C  C133  1  0.87080000  0.78500000  0.90760000  1
  C  C134  1  0.87290000  0.00820000  0.85280000  1
  C  C135  1  0.88490000  0.22306000  0.79380000  1
  C  C136  1  0.88680000  0.16453000  0.85198000  1
  C  C137  1  0.89000000  0.84930000  0.85762000  1
  C  C138  1  0.90060000  0.37320000  0.15170000  1
  C  C139  1  0.90650000  0.61680000  0.14450000  1
  C  C140  1  0.93690000  0.71170000  0.90980000  1
  C  C141  1  0.95580000  0.29483000  0.79830000  1
  C  C142  1  0.95960000  0.17870000  0.91210000  1
  C  C143  1  0.96790000  0.83740000  0.80010000  1
  C  C144  1  0.97050000  0.23440000  0.09940000  1
  C  C145  1  0.97820000  0.29762000  0.15335000  1
  C  C146  1  0.98360000  0.74435000  0.21246000  1
  C  C147  1  0.98690000  0.68810000  0.15253000  1
  N  N148  1  0.15020000  0.47881000  0.39230000  1
  N  N149  1  0.15930000  0.47560000  0.32108000  1
  N  N150  1  0.25537000  0.50392000  0.65879000  1
  N  N151  1  0.25926000  0.50664000  0.04310000  1
  N  N152  1  0.35630000  0.49806000  0.38899000  1
  N  N153  1  0.35980000  0.49464000  0.31812000  1
  N  N154  1  0.65020000  0.52119000  0.60770000  1
  N  N155  1  0.65930000  0.52440000  0.67892000  1
  N  N156  1  0.75537000  0.49608000  0.34121000  1
  N  N157  1  0.75926000  0.49336000  0.95690000  1
  N  N158  1  0.85630000  0.50194000  0.61101000  1
  N  N159  1  0.85980000  0.50536000  0.68188000  1
  O  O160  1  0.11490000  0.42520000  0.78990000  1
  O  O161  1  0.13900000  0.42180000  0.92350000  1
  O  O162  1  0.14600000  0.60345000  0.91613000  1
  O  O163  1  0.14610000  0.60930000  0.80213000  1
  O  O164  1  0.35560000  0.40450000  0.79379000  1
  O  O165  1  0.38210000  0.41358000  0.91116000  1
  O  O166  1  0.39470000  0.58660000  0.78350000  1
  O  O167  1  0.39550000  0.58550000  0.91840000  1
  O  O168  1  0.61490000  0.57480000  0.21010000  1
  O  O169  1  0.63900000  0.57820000  0.07650000  1
  O  O170  1  0.64600000  0.39655000  0.08387000  1
  O  O171  1  0.64610000  0.39070000  0.19787000  1
  O  O172  1  0.85560000  0.59550000  0.20621000  1
  O  O173  1  0.88210000  0.58642000  0.08884000  1
  O  O174  1  0.89470000  0.41340000  0.21650000  1
  O  O175  1  0.89550000  0.41450000  0.08160000  1
