# generated using pymatgen
data_Fe3C36O13
_symmetry_space_group_name_H-M   'P 1'
_cell_length_a   10.17510000
_cell_length_b   10.17510000
_cell_length_c   23.77220000
_cell_angle_alpha   90.00000000
_cell_angle_beta   90.00000000
_cell_angle_gamma   120.00000000
_symmetry_Int_Tables_number   1
_chemical_formula_structural   Fe3C36O13
_chemical_formula_sum   'Fe6 C72 O26'
_cell_volume   2131.46094462
_cell_formula_units_Z   2
loop_
 _symmetry_equiv_pos_site_id
 _symmetry_equiv_pos_as_xyz
  1  'x, y, z'
loop_
 _atom_site_type_symbol
 _atom_site_label
 _atom_site_symmetry_multiplicity
 _atom_site_fract_x
 _atom_site_fract_y
 _atom_site_fract_z
 _atom_site_occupancy
  Fe  Fe0  1  0.83610000  0.56320000  0.25000000  1
  Fe  Fe1  1  0.72710000  0.16390000  0.25000000  1
  Fe  Fe2  1  0.56320000  0.83610000  0.75000000  1
  Fe  Fe3  1  0.43680000  0.27290000  0.25000000  1
  Fe  Fe4  1  0.27290000  0.43680000  0.75000000  1
  Fe  Fe5  1  0.16390000  0.72710000  0.75000000  1
  C  C6  1  0.93480000  0.36920000  0.89770000  1
  C  C7  1  0.93480000  0.36920000  0.60230000  1
  C  C8  1  0.92380000  0.38380000  0.99830000  1
  C  C9  1  0.92380000  0.38380000  0.50170000  1
  C  C10  1  0.91870000  0.38170000  0.39630000  1
  C  C11  1  0.91870000  0.38170000  0.10370000  1
  C  C12  1  0.86440000  0.38730000  0.94180000  1
  C  C13  1  0.86440000  0.38730000  0.55820000  1
  C  C14  1  0.86030000  0.37620000  0.33380000  1
  C  C15  1  0.86030000  0.37620000  0.16620000  1
  C  C16  1  0.84690000  0.36600000  0.45100000  1
  C  C17  1  0.84690000  0.36600000  0.04900000  1
  C  C18  1  0.63400000  0.48090000  0.45100000  1
  C  C19  1  0.63400000  0.48090000  0.04900000  1
  C  C20  1  0.63080000  0.56560000  0.89770000  1
  C  C21  1  0.63080000  0.56560000  0.60230000  1
  C  C22  1  0.62380000  0.48410000  0.33380000  1
  C  C23  1  0.62380000  0.48410000  0.16620000  1
  C  C24  1  0.61830000  0.53700000  0.39630000  1
  C  C25  1  0.61830000  0.53700000  0.10370000  1
  C  C26  1  0.61620000  0.54000000  0.99830000  1
  C  C27  1  0.61620000  0.54000000  0.50170000  1
  C  C28  1  0.61270000  0.47710000  0.94180000  1
  C  C29  1  0.61270000  0.47710000  0.55820000  1
  C  C30  1  0.56560000  0.63080000  0.39770000  1
  C  C31  1  0.56560000  0.63080000  0.10230000  1
  C  C32  1  0.54000000  0.61620000  0.49830000  1
  C  C33  1  0.54000000  0.61620000  0.00170000  1
  C  C34  1  0.53700000  0.61830000  0.89630000  1
  C  C35  1  0.53700000  0.61830000  0.60370000  1
  C  C36  1  0.52290000  0.13560000  0.94180000  1
  C  C37  1  0.52290000  0.13560000  0.55820000  1
  C  C38  1  0.51910000  0.15310000  0.45100000  1
  C  C39  1  0.51910000  0.15310000  0.04900000  1
  C  C40  1  0.51590000  0.13970000  0.33380000  1
  C  C41  1  0.51590000  0.13970000  0.16620000  1
  C  C42  1  0.48410000  0.62380000  0.83380000  1
  C  C43  1  0.48410000  0.62380000  0.66620000  1
  C  C44  1  0.48090000  0.63400000  0.95100000  1
  C  C45  1  0.48090000  0.63400000  0.54900000  1
  C  C46  1  0.47710000  0.61270000  0.44180000  1
  C  C47  1  0.47710000  0.61270000  0.05820000  1
  C  C48  1  0.46300000  0.08130000  0.39630000  1
  C  C49  1  0.46300000  0.08130000  0.10370000  1
  C  C50  1  0.46000000  0.07620000  0.99830000  1
  C  C51  1  0.46000000  0.07620000  0.50170000  1
  C  C52  1  0.43440000  0.06520000  0.89770000  1
  C  C53  1  0.43440000  0.06520000  0.60230000  1
  C  C54  1  0.38730000  0.86440000  0.44180000  1
  C  C55  1  0.38730000  0.86440000  0.05820000  1
  C  C56  1  0.38380000  0.92380000  0.49830000  1
  C  C57  1  0.38380000  0.92380000  0.00170000  1
  C  C58  1  0.38170000  0.91870000  0.89630000  1
  C  C59  1  0.38170000  0.91870000  0.60370000  1
  C  C60  1  0.37620000  0.86030000  0.83380000  1
  C  C61  1  0.37620000  0.86030000  0.66620000  1
  C  C62  1  0.36920000  0.93480000  0.39770000  1
  C  C63  1  0.36920000  0.93480000  0.10230000  1
  C  C64  1  0.36600000  0.84690000  0.95100000  1
  C  C65  1  0.36600000  0.84690000  0.54900000  1
  C  C66  1  0.15310000  0.51910000  0.95100000  1
  C  C67  1  0.15310000  0.51910000  0.54900000  1
  C  C68  1  0.13970000  0.51590000  0.83380000  1
  C  C69  1  0.13970000  0.51590000  0.66620000  1
  C  C70  1  0.13560000  0.52290000  0.44180000  1
  C  C71  1  0.13560000  0.52290000  0.05820000  1
  C  C72  1  0.08130000  0.46300000  0.89630000  1
  C  C73  1  0.08130000  0.46300000  0.60370000  1
  C  C74  1  0.07620000  0.46000000  0.49830000  1
  C  C75  1  0.07620000  0.46000000  0.00170000  1
  C  C76  1  0.06520000  0.43440000  0.39770000  1
  C  C77  1  0.06520000  0.43440000  0.10230000  1
  O  O78  1  0.93170000  0.50460000  0.30840000  1
  O  O79  1  0.93170000  0.50460000  0.19160000  1
  O  O80  1  0.87550000  0.27270000  0.31060000  1
  O  O81  1  0.87550000  0.27270000  0.18940000  1
  O  O82  1  0.72730000  0.60280000  0.31060000  1
  O  O83  1  0.72730000  0.60280000  0.18940000  1
  O  O84  1  0.66666667  0.33333333  0.25000000  1
  O  O85  1  0.60280000  0.72730000  0.81060000  1
  O  O86  1  0.60280000  0.72730000  0.68940000  1
  O  O87  1  0.57290000  0.06830000  0.30840000  1
  O  O88  1  0.57290000  0.06830000  0.19160000  1
  O  O89  1  0.50460000  0.93170000  0.80840000  1
  O  O90  1  0.50460000  0.93170000  0.69160000  1
  O  O91  1  0.49540000  0.42710000  0.30840000  1
  O  O92  1  0.49540000  0.42710000  0.19160000  1
  O  O93  1  0.42710000  0.49540000  0.80840000  1
  O  O94  1  0.42710000  0.49540000  0.69160000  1
  O  O95  1  0.39720000  0.12450000  0.31060000  1
  O  O96  1  0.39720000  0.12450000  0.18940000  1
  O  O97  1  0.33333333  0.66666667  0.75000000  1
  O  O98  1  0.27270000  0.87550000  0.81060000  1
  O  O99  1  0.27270000  0.87550000  0.68940000  1
  O  O100  1  0.12450000  0.39720000  0.81060000  1
  O  O101  1  0.12450000  0.39720000  0.68940000  1
  O  O102  1  0.06830000  0.57290000  0.80840000  1
  O  O103  1  0.06830000  0.57290000  0.69160000  1
