# generated using pymatgen
data_Zn5P2H8(CO)16
_symmetry_space_group_name_H-M   'P 1'
_cell_length_a   7.41900000
_cell_length_b   9.96900000
_cell_length_c   11.14800000
_cell_angle_alpha   65.15200000
_cell_angle_beta   76.10900000
_cell_angle_gamma   69.96500000
_symmetry_Int_Tables_number   1
_chemical_formula_structural   Zn5P2H8(CO)16
_chemical_formula_sum   'Zn5 P2 H8 C16 O16'
_cell_volume   698.41962382
_cell_formula_units_Z   1
loop_
 _symmetry_equiv_pos_site_id
 _symmetry_equiv_pos_as_xyz
  1  'x, y, z'
loop_
 _atom_site_type_symbol
 _atom_site_label
 _atom_site_symmetry_multiplicity
 _atom_site_fract_x
 _atom_site_fract_y
 _atom_site_fract_z
 _atom_site_occupancy
  Zn  Zn0  1  0.07410000  0.71801000  0.95208000  1
  Zn  Zn1  1  0.44334000  0.64693000  0.70507000  1
  Zn  Zn2  1  0.50000000  0.50000000  0.00000000  1
  Zn  Zn3  1  0.55666000  0.35307000  0.29493000  1
  Zn  Zn4  1  0.92590000  0.28199000  0.04792000  1
  P  P5  1  0.14760000  0.38860000  0.19121000  1
  P  P6  1  0.85240000  0.61140000  0.80879000  1
  H  H7  1  0.12360000  0.84890000  0.27980000  1
  H  H8  1  0.15350000  0.49640000  0.63180000  1
  H  H9  1  0.23500000  0.49300000  0.88700000  1
  H  H10  1  0.25470000  0.10380000  0.40670000  1
  H  H11  1  0.74530000  0.89620000  0.59330000  1
  H  H12  1  0.76500000  0.50700000  0.11300000  1
  H  H13  1  0.84650000  0.50360000  0.36820000  1
  H  H14  1  0.87640000  0.15110000  0.72020000  1
  C  C15  1  0.05990000  0.31400000  0.36540000  1
  C  C16  1  0.07580000  0.80800000  0.36870000  1
  C  C17  1  0.08340000  0.10270000  0.57890000  1
  C  C18  1  0.09560000  0.59720000  0.57970000  1
  C  C19  1  0.15030000  0.16340000  0.44410000  1
  C  C20  1  0.16560000  0.65860000  0.44620000  1
  C  C21  1  0.18270000  0.94380000  0.66720000  1
  C  C22  1  0.33350000  0.56600000  0.38240000  1
  C  C23  1  0.66650000  0.43400000  0.61760000  1
  C  C24  1  0.81730000  0.05620000  0.33280000  1
  C  C25  1  0.83440000  0.34140000  0.55380000  1
  C  C26  1  0.84970000  0.83660000  0.55590000  1
  C  C27  1  0.90440000  0.40280000  0.42030000  1
  C  C28  1  0.91660000  0.89730000  0.42110000  1
  C  C29  1  0.92420000  0.19200000  0.63130000  1
  C  C30  1  0.94010000  0.68600000  0.63460000  1
  O  O31  1  0.02280000  0.55090000  0.13240000  1
  O  O32  1  0.13460000  0.90570000  0.78940000  1
  O  O33  1  0.14080000  0.28040000  0.12940000  1
  O  O34  1  0.29290000  0.56090000  0.87780000  1
  O  O35  1  0.30750000  0.85870000  0.60960000  1
  O  O36  1  0.36020000  0.38310000  0.18210000  1
  O  O37  1  0.38890000  0.42060000  0.44180000  1
  O  O38  1  0.41520000  0.63180000  0.27170000  1
  O  O39  1  0.58480000  0.36820000  0.72830000  1
  O  O40  1  0.61110000  0.57940000  0.55820000  1
  O  O41  1  0.63980000  0.61690000  0.81790000  1
  O  O42  1  0.69250000  0.14130000  0.39040000  1
  O  O43  1  0.70710000  0.43910000  0.12220000  1
  O  O44  1  0.85920000  0.71960000  0.87060000  1
  O  O45  1  0.86540000  0.09430000  0.21060000  1
  O  O46  1  0.97720000  0.44910000  0.86760000  1
