# generated using pymatgen
data_NdH6(C6O5)2
_symmetry_space_group_name_H-M   'P 1'
_cell_length_a   10.52300000
_cell_length_b   11.18400000
_cell_length_c   12.70000000
_cell_angle_alpha   102.98000000
_cell_angle_beta   109.32900000
_cell_angle_gamma   97.76600000
_symmetry_Int_Tables_number   1
_chemical_formula_structural   NdH6(C6O5)2
_chemical_formula_sum   'Nd2 H12 C24 O20'
_cell_volume   1338.23037680
_cell_formula_units_Z   2
loop_
 _symmetry_equiv_pos_site_id
 _symmetry_equiv_pos_as_xyz
  1  'x, y, z'
loop_
 _atom_site_type_symbol
 _atom_site_label
 _atom_site_symmetry_multiplicity
 _atom_site_fract_x
 _atom_site_fract_y
 _atom_site_fract_z
 _atom_site_occupancy
  Nd  Nd0  1  0.10233000  0.54633000  0.68132000  1
  Nd  Nd1  1  0.89767000  0.45367000  0.31868000  1
  H  H2  1  0.00590000  0.14590000  0.66230000  1
  H  H3  1  0.06450000  0.87630000  0.70620000  1
  H  H4  1  0.18190000  0.91690000  0.94950000  1
  H  H5  1  0.25630000  0.39450000  0.25600000  1
  H  H6  1  0.40420000  0.56080000  0.63710000  1
  H  H7  1  0.46000000  0.23040000  0.17250000  1
  H  H8  1  0.54000000  0.76960000  0.82750000  1
  H  H9  1  0.59580000  0.43920000  0.36290000  1
  H  H10  1  0.74370000  0.60550000  0.74400000  1
  H  H11  1  0.81810000  0.08310000  0.05050000  1
  H  H12  1  0.93550000  0.12370000  0.29380000  1
  H  H13  1  0.99410000  0.85410000  0.33770000  1
  C  C14  1  0.00400000  0.08700000  0.59690000  1
  C  C15  1  0.02200000  0.88110000  0.50600000  1
  C  C16  1  0.02730000  0.97000000  0.60550000  1
  C  C17  1  0.04010000  0.75020000  0.50680000  1
  C  C18  1  0.20570000  0.46860000  0.43200000  1
  C  C19  1  0.29910000  0.77090000  0.84810000  1
  C  C20  1  0.35720000  0.48440000  0.46590000  1
  C  C21  1  0.36200000  0.98540000  0.99090000  1
  C  C22  1  0.40260000  0.89010000  0.92640000  1
  C  C23  1  0.41550000  0.44910000  0.38260000  1
  C  C24  1  0.44280000  0.53590000  0.58190000  1
  C  C25  1  0.46010000  0.09550000  0.06440000  1
  C  C26  1  0.53990000  0.90450000  0.93560000  1
  C  C27  1  0.55720000  0.46410000  0.41810000  1
  C  C28  1  0.58450000  0.55090000  0.61740000  1
  C  C29  1  0.59740000  0.10990000  0.07360000  1
  C  C30  1  0.63800000  0.01460000  0.00910000  1
  C  C31  1  0.64280000  0.51560000  0.53410000  1
  C  C32  1  0.70090000  0.22910000  0.15190000  1
  C  C33  1  0.79430000  0.53140000  0.56800000  1
  C  C34  1  0.95990000  0.24980000  0.49320000  1
  C  C35  1  0.97270000  0.03000000  0.39450000  1
  C  C36  1  0.97800000  0.11890000  0.49400000  1
  C  C37  1  0.99600000  0.91300000  0.40310000  1
  O  O38  1  0.01700000  0.67220000  0.41180000  1
  O  O39  1  0.05280000  0.94800000  0.71090000  1
  O  O40  1  0.07700000  0.72870000  0.60510000  1
  O  O41  1  0.12970000  0.43000000  0.32430000  1
  O  O42  1  0.15320000  0.49320000  0.50740000  1
  O  O43  1  0.17850000  0.75200000  0.84920000  1
  O  O44  1  0.23420000  0.98460000  0.99160000  1
  O  O45  1  0.33550000  0.69180000  0.78370000  1
  O  O46  1  0.33820000  0.39840000  0.26700000  1
  O  O47  1  0.40160000  0.18190000  0.11200000  1
  O  O48  1  0.59840000  0.81810000  0.88800000  1
  O  O49  1  0.66180000  0.60160000  0.73300000  1
  O  O50  1  0.66450000  0.30820000  0.21630000  1
  O  O51  1  0.76580000  0.01540000  0.00840000  1
  O  O52  1  0.82150000  0.24800000  0.15080000  1
  O  O53  1  0.84680000  0.50680000  0.49260000  1
  O  O54  1  0.87030000  0.57000000  0.67570000  1
  O  O55  1  0.92300000  0.27130000  0.39490000  1
  O  O56  1  0.94720000  0.05200000  0.28910000  1
  O  O57  1  0.98300000  0.32780000  0.58820000  1
