# generated using pymatgen
data_Cd7H30C78(NO4)6
_symmetry_space_group_name_H-M   'P 1'
_cell_length_a   22.52100000
_cell_length_b   22.52100000
_cell_length_c   22.52100000
_cell_angle_alpha   90.00000000
_cell_angle_beta   90.00000000
_cell_angle_gamma   90.00000000
_symmetry_Int_Tables_number   1
_chemical_formula_structural   Cd7H30C78(NO4)6
_chemical_formula_sum   'Cd14 H60 C156 N12 O48'
_cell_volume   11422.54852676
_cell_formula_units_Z   2
loop_
 _symmetry_equiv_pos_site_id
 _symmetry_equiv_pos_as_xyz
  1  'x, y, z'
loop_
 _atom_site_type_symbol
 _atom_site_label
 _atom_site_symmetry_multiplicity
 _atom_site_fract_x
 _atom_site_fract_y
 _atom_site_fract_z
 _atom_site_occupancy
  Cd  Cd0  1  0.00000000  0.00000000  0.46200000  1
  Cd  Cd1  1  0.00000000  0.00000000  0.53800000  1
  Cd  Cd2  1  0.00000000  0.46200000  0.00000000  1
  Cd  Cd3  1  0.00000000  0.53800000  0.00000000  1
  Cd  Cd4  1  0.28534000  0.28534000  0.28534000  1
  Cd  Cd5  1  0.28534000  0.28534000  0.71466000  1
  Cd  Cd6  1  0.28534000  0.71466000  0.28534000  1
  Cd  Cd7  1  0.28534000  0.71466000  0.71466000  1
  Cd  Cd8  1  0.46200000  0.00000000  0.00000000  1
  Cd  Cd9  1  0.53800000  0.00000000  0.00000000  1
  Cd  Cd10  1  0.71466000  0.28534000  0.28534000  1
  Cd  Cd11  1  0.71466000  0.28534000  0.71466000  1
  Cd  Cd12  1  0.71466000  0.71466000  0.28534000  1
  Cd  Cd13  1  0.71466000  0.71466000  0.71466000  1
  H  H14  1  0.05420000  0.22620000  0.50000000  1
  H  H15  1  0.05420000  0.50000000  0.22620000  1
  H  H16  1  0.05420000  0.50000000  0.77380000  1
  H  H17  1  0.05420000  0.77380000  0.50000000  1
  H  H18  1  0.16320000  0.16320000  0.41110000  1
  H  H19  1  0.16320000  0.16320000  0.58890000  1
  H  H20  1  0.16320000  0.41110000  0.16320000  1
  H  H21  1  0.16320000  0.41110000  0.83680000  1
  H  H22  1  0.16320000  0.58890000  0.16320000  1
  H  H23  1  0.16320000  0.58890000  0.83680000  1
  H  H24  1  0.16320000  0.83680000  0.41110000  1
  H  H25  1  0.16320000  0.83680000  0.58890000  1
  H  H26  1  0.22620000  0.05420000  0.50000000  1
  H  H27  1  0.22620000  0.50000000  0.05420000  1
  H  H28  1  0.22620000  0.50000000  0.94580000  1
  H  H29  1  0.22620000  0.94580000  0.50000000  1
  H  H30  1  0.27190000  0.27190000  0.50000000  1
  H  H31  1  0.27190000  0.50000000  0.27190000  1
  H  H32  1  0.27190000  0.50000000  0.72810000  1
  H  H33  1  0.27190000  0.72810000  0.50000000  1
  H  H34  1  0.41110000  0.16320000  0.16320000  1
  H  H35  1  0.41110000  0.16320000  0.83680000  1
  H  H36  1  0.41110000  0.83680000  0.16320000  1
  H  H37  1  0.41110000  0.83680000  0.83680000  1
  H  H38  1  0.50000000  0.05420000  0.22620000  1
  H  H39  1  0.50000000  0.05420000  0.77380000  1
  H  H40  1  0.50000000  0.22620000  0.05420000  1
  H  H41  1  0.50000000  0.22620000  0.94580000  1
  H  H42  1  0.50000000  0.27190000  0.27190000  1
  H  H43  1  0.50000000  0.27190000  0.72810000  1
  H  H44  1  0.50000000  0.72810000  0.27190000  1
  H  H45  1  0.50000000  0.72810000  0.72810000  1
  H  H46  1  0.50000000  0.77380000  0.05420000  1
  H  H47  1  0.50000000  0.77380000  0.94580000  1
  H  H48  1  0.50000000  0.94580000  0.22620000  1
  H  H49  1  0.50000000  0.94580000  0.77380000  1
  H  H50  1  0.58890000  0.16320000  0.16320000  1
  H  H51  1  0.58890000  0.16320000  0.83680000  1
  H  H52  1  0.58890000  0.83680000  0.16320000  1
  H  H53  1  0.58890000  0.83680000  0.83680000  1
  H  H54  1  0.72810000  0.27190000  0.50000000  1
  H  H55  1  0.72810000  0.50000000  0.27190000  1
  H  H56  1  0.72810000  0.50000000  0.72810000  1
  H  H57  1  0.72810000  0.72810000  0.50000000  1
  H  H58  1  0.77380000  0.05420000  0.50000000  1
  H  H59  1  0.77380000  0.50000000  0.05420000  1
  H  H60  1  0.77380000  0.50000000  0.94580000  1
  H  H61  1  0.77380000  0.94580000  0.50000000  1
  H  H62  1  0.83680000  0.16320000  0.41110000  1
  H  H63  1  0.83680000  0.16320000  0.58890000  1
  H  H64  1  0.83680000  0.41110000  0.16320000  1
  H  H65  1  0.83680000  0.41110000  0.83680000  1
  H  H66  1  0.83680000  0.58890000  0.16320000  1
  H  H67  1  0.83680000  0.58890000  0.83680000  1
  H  H68  1  0.83680000  0.83680000  0.41110000  1
  H  H69  1  0.83680000  0.83680000  0.58890000  1
  H  H70  1  0.94580000  0.22620000  0.50000000  1
  H  H71  1  0.94580000  0.50000000  0.22620000  1
  H  H72  1  0.94580000  0.50000000  0.77380000  1
  H  H73  1  0.94580000  0.77380000  0.50000000  1
  C  C74  1  0.03010000  0.19270000  0.50000000  1
  C  C75  1  0.03010000  0.50000000  0.19270000  1
  C  C76  1  0.03010000  0.50000000  0.80730000  1
  C  C77  1  0.03010000  0.80730000  0.50000000  1
  C  C78  1  0.05090000  0.13090000  0.50000000  1
  C  C79  1  0.05090000  0.50000000  0.13090000  1
  C  C80  1  0.05090000  0.50000000  0.86910000  1
  C  C81  1  0.05090000  0.86910000  0.50000000  1
  C  C82  1  0.10910000  0.10910000  0.50000000  1
  C  C83  1  0.10910000  0.50000000  0.10910000  1
  C  C84  1  0.10910000  0.50000000  0.89090000  1
  C  C85  1  0.10910000  0.89090000  0.50000000  1
  C  C86  1  0.13090000  0.05090000  0.50000000  1
  C  C87  1  0.13090000  0.50000000  0.05090000  1
  C  C88  1  0.13090000  0.50000000  0.94910000  1
  C  C89  1  0.13090000  0.94910000  0.50000000  1
  C  C90  1  0.15600000  0.15600000  0.50000000  1
  C  C91  1  0.15600000  0.50000000  0.15600000  1
  C  C92  1  0.15600000  0.50000000  0.84400000  1
  C  C93  1  0.15600000  0.84400000  0.50000000  1
  C  C94  1  0.17770000  0.17770000  0.44690000  1
  C  C95  1  0.17770000  0.17770000  0.55310000  1
  C  C96  1  0.17770000  0.44690000  0.17770000  1
  C  C97  1  0.17770000  0.44690000  0.82230000  1
  C  C98  1  0.17770000  0.55310000  0.17770000  1
  C  C99  1  0.17770000  0.55310000  0.82230000  1
  C  C100  1  0.17770000  0.82230000  0.44690000  1
  C  C101  1  0.17770000  0.82230000  0.55310000  1
  C  C102  1  0.19270000  0.03010000  0.50000000  1
  C  C103  1  0.19270000  0.50000000  0.03010000  1
  C  C104  1  0.19270000  0.50000000  0.96990000  1
  C  C105  1  0.19270000  0.96990000  0.50000000  1
  C  C106  1  0.22160000  0.22160000  0.44700000  1
  C  C107  1  0.22160000  0.22160000  0.55300000  1
  C  C108  1  0.22160000  0.44700000  0.22160000  1
  C  C109  1  0.22160000  0.44700000  0.77840000  1
  C  C110  1  0.22160000  0.55300000  0.22160000  1
  C  C111  1  0.22160000  0.55300000  0.77840000  1
  C  C112  1  0.22160000  0.77840000  0.44700000  1
  C  C113  1  0.22160000  0.77840000  0.55300000  1
  C  C114  1  0.24270000  0.24270000  0.50000000  1
  C  C115  1  0.24270000  0.50000000  0.24270000  1
  C  C116  1  0.24270000  0.50000000  0.75730000  1
  C  C117  1  0.24270000  0.75730000  0.50000000  1
  C  C118  1  0.24450000  0.24450000  0.38940000  1
  C  C119  1  0.24450000  0.24450000  0.61060000  1
  C  C120  1  0.24450000  0.38940000  0.24450000  1
  C  C121  1  0.24450000  0.38940000  0.75550000  1
  C  C122  1  0.24450000  0.61060000  0.24450000  1
  C  C123  1  0.24450000  0.61060000  0.75550000  1
  C  C124  1  0.24450000  0.75550000  0.38940000  1
  C  C125  1  0.24450000  0.75550000  0.61060000  1
  C  C126  1  0.38940000  0.24450000  0.24450000  1
  C  C127  1  0.38940000  0.24450000  0.75550000  1
  C  C128  1  0.38940000  0.75550000  0.24450000  1
  C  C129  1  0.38940000  0.75550000  0.75550000  1
  C  C130  1  0.44690000  0.17770000  0.17770000  1
  C  C131  1  0.44690000  0.17770000  0.82230000  1
  C  C132  1  0.44690000  0.82230000  0.17770000  1
  C  C133  1  0.44690000  0.82230000  0.82230000  1
  C  C134  1  0.44700000  0.22160000  0.22160000  1
  C  C135  1  0.44700000  0.22160000  0.77840000  1
  C  C136  1  0.44700000  0.77840000  0.22160000  1
  C  C137  1  0.44700000  0.77840000  0.77840000  1
  C  C138  1  0.50000000  0.03010000  0.19270000  1
  C  C139  1  0.50000000  0.03010000  0.80730000  1
  C  C140  1  0.50000000  0.05090000  0.13090000  1
  C  C141  1  0.50000000  0.05090000  0.86910000  1
  C  C142  1  0.50000000  0.10910000  0.10910000  1
  C  C143  1  0.50000000  0.10910000  0.89090000  1
  C  C144  1  0.50000000  0.13090000  0.05090000  1
  C  C145  1  0.50000000  0.13090000  0.94910000  1
  C  C146  1  0.50000000  0.15600000  0.15600000  1
  C  C147  1  0.50000000  0.15600000  0.84400000  1
  C  C148  1  0.50000000  0.19270000  0.03010000  1
  C  C149  1  0.50000000  0.19270000  0.96990000  1
  C  C150  1  0.50000000  0.24270000  0.24270000  1
  C  C151  1  0.50000000  0.24270000  0.75730000  1
  C  C152  1  0.50000000  0.75730000  0.24270000  1
  C  C153  1  0.50000000  0.75730000  0.75730000  1
  C  C154  1  0.50000000  0.80730000  0.03010000  1
  C  C155  1  0.50000000  0.80730000  0.96990000  1
  C  C156  1  0.50000000  0.84400000  0.15600000  1
  C  C157  1  0.50000000  0.84400000  0.84400000  1
  C  C158  1  0.50000000  0.86910000  0.05090000  1
  C  C159  1  0.50000000  0.86910000  0.94910000  1
  C  C160  1  0.50000000  0.89090000  0.10910000  1
  C  C161  1  0.50000000  0.89090000  0.89090000  1
  C  C162  1  0.50000000  0.94910000  0.13090000  1
  C  C163  1  0.50000000  0.94910000  0.86910000  1
  C  C164  1  0.50000000  0.96990000  0.19270000  1
  C  C165  1  0.50000000  0.96990000  0.80730000  1
  C  C166  1  0.55300000  0.22160000  0.22160000  1
  C  C167  1  0.55300000  0.22160000  0.77840000  1
  C  C168  1  0.55300000  0.77840000  0.22160000  1
  C  C169  1  0.55300000  0.77840000  0.77840000  1
  C  C170  1  0.55310000  0.17770000  0.17770000  1
  C  C171  1  0.55310000  0.17770000  0.82230000  1
  C  C172  1  0.55310000  0.82230000  0.17770000  1
  C  C173  1  0.55310000  0.82230000  0.82230000  1
  C  C174  1  0.61060000  0.24450000  0.24450000  1
  C  C175  1  0.61060000  0.24450000  0.75550000  1
  C  C176  1  0.61060000  0.75550000  0.24450000  1
  C  C177  1  0.61060000  0.75550000  0.75550000  1
  C  C178  1  0.75550000  0.24450000  0.38940000  1
  C  C179  1  0.75550000  0.24450000  0.61060000  1
  C  C180  1  0.75550000  0.38940000  0.24450000  1
  C  C181  1  0.75550000  0.38940000  0.75550000  1
  C  C182  1  0.75550000  0.61060000  0.24450000  1
  C  C183  1  0.75550000  0.61060000  0.75550000  1
  C  C184  1  0.75550000  0.75550000  0.38940000  1
  C  C185  1  0.75550000  0.75550000  0.61060000  1
  C  C186  1  0.75730000  0.24270000  0.50000000  1
  C  C187  1  0.75730000  0.50000000  0.24270000  1
  C  C188  1  0.75730000  0.50000000  0.75730000  1
  C  C189  1  0.75730000  0.75730000  0.50000000  1
  C  C190  1  0.77840000  0.22160000  0.44700000  1
  C  C191  1  0.77840000  0.22160000  0.55300000  1
  C  C192  1  0.77840000  0.44700000  0.22160000  1
  C  C193  1  0.77840000  0.44700000  0.77840000  1
  C  C194  1  0.77840000  0.55300000  0.22160000  1
  C  C195  1  0.77840000  0.55300000  0.77840000  1
  C  C196  1  0.77840000  0.77840000  0.44700000  1
  C  C197  1  0.77840000  0.77840000  0.55300000  1
  C  C198  1  0.80730000  0.03010000  0.50000000  1
  C  C199  1  0.80730000  0.50000000  0.03010000  1
  C  C200  1  0.80730000  0.50000000  0.96990000  1
  C  C201  1  0.80730000  0.96990000  0.50000000  1
  C  C202  1  0.82230000  0.17770000  0.44690000  1
  C  C203  1  0.82230000  0.17770000  0.55310000  1
  C  C204  1  0.82230000  0.44690000  0.17770000  1
  C  C205  1  0.82230000  0.44690000  0.82230000  1
  C  C206  1  0.82230000  0.55310000  0.17770000  1
  C  C207  1  0.82230000  0.55310000  0.82230000  1
  C  C208  1  0.82230000  0.82230000  0.44690000  1
  C  C209  1  0.82230000  0.82230000  0.55310000  1
  C  C210  1  0.84400000  0.15600000  0.50000000  1
  C  C211  1  0.84400000  0.50000000  0.15600000  1
  C  C212  1  0.84400000  0.50000000  0.84400000  1
  C  C213  1  0.84400000  0.84400000  0.50000000  1
  C  C214  1  0.86910000  0.05090000  0.50000000  1
  C  C215  1  0.86910000  0.50000000  0.05090000  1
  C  C216  1  0.86910000  0.50000000  0.94910000  1
  C  C217  1  0.86910000  0.94910000  0.50000000  1
  C  C218  1  0.89090000  0.10910000  0.50000000  1
  C  C219  1  0.89090000  0.50000000  0.10910000  1
  C  C220  1  0.89090000  0.50000000  0.89090000  1
  C  C221  1  0.89090000  0.89090000  0.50000000  1
  C  C222  1  0.94910000  0.13090000  0.50000000  1
  C  C223  1  0.94910000  0.50000000  0.13090000  1
  C  C224  1  0.94910000  0.50000000  0.86910000  1
  C  C225  1  0.94910000  0.86910000  0.50000000  1
  C  C226  1  0.96990000  0.19270000  0.50000000  1
  C  C227  1  0.96990000  0.50000000  0.19270000  1
  C  C228  1  0.96990000  0.50000000  0.80730000  1
  C  C229  1  0.96990000  0.80730000  0.50000000  1
  N  N230  1  0.00000000  0.09570000  0.50000000  1
  N  N231  1  0.00000000  0.50000000  0.09570000  1
  N  N232  1  0.00000000  0.50000000  0.90430000  1
  N  N233  1  0.00000000  0.90430000  0.50000000  1
  N  N234  1  0.09570000  0.00000000  0.50000000  1
  N  N235  1  0.09570000  0.50000000  0.00000000  1
  N  N236  1  0.50000000  0.00000000  0.09570000  1
  N  N237  1  0.50000000  0.00000000  0.90430000  1
  N  N238  1  0.50000000  0.09570000  0.00000000  1
  N  N239  1  0.50000000  0.90430000  0.00000000  1
  N  N240  1  0.90430000  0.00000000  0.50000000  1
  N  N241  1  0.90430000  0.50000000  0.00000000  1
  O  O242  1  0.22510000  0.22510000  0.34460000  1
  O  O243  1  0.22510000  0.22510000  0.65540000  1
  O  O244  1  0.22510000  0.34460000  0.22510000  1
  O  O245  1  0.22510000  0.34460000  0.77490000  1
  O  O246  1  0.22510000  0.65540000  0.22510000  1
  O  O247  1  0.22510000  0.65540000  0.77490000  1
  O  O248  1  0.22510000  0.77490000  0.34460000  1
  O  O249  1  0.22510000  0.77490000  0.65540000  1
  O  O250  1  0.28290000  0.28290000  0.39240000  1
  O  O251  1  0.28290000  0.28290000  0.60760000  1
  O  O252  1  0.28290000  0.39240000  0.28290000  1
  O  O253  1  0.28290000  0.39240000  0.71710000  1
  O  O254  1  0.28290000  0.60760000  0.28290000  1
  O  O255  1  0.28290000  0.60760000  0.71710000  1
  O  O256  1  0.28290000  0.71710000  0.39240000  1
  O  O257  1  0.28290000  0.71710000  0.60760000  1
  O  O258  1  0.34460000  0.22510000  0.22510000  1
  O  O259  1  0.34460000  0.22510000  0.77490000  1
  O  O260  1  0.34460000  0.77490000  0.22510000  1
  O  O261  1  0.34460000  0.77490000  0.77490000  1
  O  O262  1  0.39240000  0.28290000  0.28290000  1
  O  O263  1  0.39240000  0.28290000  0.71710000  1
  O  O264  1  0.39240000  0.71710000  0.28290000  1
  O  O265  1  0.39240000  0.71710000  0.71710000  1
  O  O266  1  0.60760000  0.28290000  0.28290000  1
  O  O267  1  0.60760000  0.28290000  0.71710000  1
  O  O268  1  0.60760000  0.71710000  0.28290000  1
  O  O269  1  0.60760000  0.71710000  0.71710000  1
  O  O270  1  0.65540000  0.22510000  0.22510000  1
  O  O271  1  0.65540000  0.22510000  0.77490000  1
  O  O272  1  0.65540000  0.77490000  0.22510000  1
  O  O273  1  0.65540000  0.77490000  0.77490000  1
  O  O274  1  0.71710000  0.28290000  0.39240000  1
  O  O275  1  0.71710000  0.28290000  0.60760000  1
  O  O276  1  0.71710000  0.39240000  0.28290000  1
  O  O277  1  0.71710000  0.39240000  0.71710000  1
  O  O278  1  0.71710000  0.60760000  0.28290000  1
  O  O279  1  0.71710000  0.60760000  0.71710000  1
  O  O280  1  0.71710000  0.71710000  0.39240000  1
  O  O281  1  0.71710000  0.71710000  0.60760000  1
  O  O282  1  0.77490000  0.22510000  0.34460000  1
  O  O283  1  0.77490000  0.22510000  0.65540000  1
  O  O284  1  0.77490000  0.34460000  0.22510000  1
  O  O285  1  0.77490000  0.34460000  0.77490000  1
  O  O286  1  0.77490000  0.65540000  0.22510000  1
  O  O287  1  0.77490000  0.65540000  0.77490000  1
  O  O288  1  0.77490000  0.77490000  0.34460000  1
  O  O289  1  0.77490000  0.77490000  0.65540000  1
