# generated using pymatgen
data_Cu3H10C17O10
_symmetry_space_group_name_H-M   'P 1'
_cell_length_a   8.13870000
_cell_length_b   18.46090000
_cell_length_c   18.65530000
_cell_angle_alpha   90.00000000
_cell_angle_beta   90.00000000
_cell_angle_gamma   90.00000000
_symmetry_Int_Tables_number   1
_chemical_formula_structural   Cu3H10C17O10
_chemical_formula_sum   'Cu12 H40 C68 O40'
_cell_volume   2802.91641833
_cell_formula_units_Z   4
loop_
 _symmetry_equiv_pos_site_id
 _symmetry_equiv_pos_as_xyz
  1  'x, y, z'
loop_
 _atom_site_type_symbol
 _atom_site_label
 _atom_site_symmetry_multiplicity
 _atom_site_fract_x
 _atom_site_fract_y
 _atom_site_fract_z
 _atom_site_occupancy
  Cu  Cu0  1  0.00000000  0.00000000  0.00000000  1
  Cu  Cu1  1  0.00000000  0.50000000  0.50000000  1
  Cu  Cu2  1  0.20933000  0.06924000  0.58564000  1
  Cu  Cu3  1  0.20933000  0.43076000  0.91436000  1
  Cu  Cu4  1  0.29067000  0.56924000  0.41436000  1
  Cu  Cu5  1  0.29067000  0.93076000  0.08564000  1
  Cu  Cu6  1  0.50000000  0.00000000  0.50000000  1
  Cu  Cu7  1  0.50000000  0.50000000  0.00000000  1
  Cu  Cu8  1  0.70933000  0.06924000  0.91436000  1
  Cu  Cu9  1  0.70933000  0.43076000  0.58564000  1
  Cu  Cu10  1  0.79067000  0.56924000  0.08564000  1
  Cu  Cu11  1  0.79067000  0.93076000  0.41436000  1
  H  H12  1  0.00500000  0.55400000  0.37100000  1
  H  H13  1  0.00500000  0.94600000  0.12900000  1
  H  H14  1  0.07700000  0.63040000  0.80970000  1
  H  H15  1  0.07700000  0.86960000  0.69030000  1
  H  H16  1  0.08320000  0.65540000  0.65550000  1
  H  H17  1  0.08320000  0.84460000  0.84450000  1
  H  H18  1  0.11050000  0.20810000  0.24350000  1
  H  H19  1  0.11050000  0.29190000  0.25650000  1
  H  H20  1  0.19420000  0.21040000  0.01670000  1
  H  H21  1  0.19420000  0.28960000  0.48330000  1
  H  H22  1  0.30580000  0.71040000  0.98330000  1
  H  H23  1  0.30580000  0.78960000  0.51670000  1
  H  H24  1  0.38950000  0.70810000  0.75650000  1
  H  H25  1  0.38950000  0.79190000  0.74350000  1
  H  H26  1  0.41680000  0.15540000  0.34450000  1
  H  H27  1  0.41680000  0.34460000  0.15550000  1
  H  H28  1  0.42300000  0.13040000  0.19030000  1
  H  H29  1  0.42300000  0.36960000  0.30970000  1
  H  H30  1  0.49500000  0.05400000  0.62900000  1
  H  H31  1  0.49500000  0.44600000  0.87100000  1
  H  H32  1  0.50500000  0.55400000  0.12900000  1
  H  H33  1  0.50500000  0.94600000  0.37100000  1
  H  H34  1  0.57700000  0.63040000  0.69030000  1
  H  H35  1  0.57700000  0.86960000  0.80970000  1
  H  H36  1  0.58320000  0.65540000  0.84450000  1
  H  H37  1  0.58320000  0.84460000  0.65550000  1
  H  H38  1  0.61050000  0.20810000  0.25650000  1
  H  H39  1  0.61050000  0.29190000  0.24350000  1
  H  H40  1  0.69420000  0.21040000  0.48330000  1
  H  H41  1  0.69420000  0.28960000  0.01670000  1
  H  H42  1  0.80580000  0.71040000  0.51670000  1
  H  H43  1  0.80580000  0.78960000  0.98330000  1
  H  H44  1  0.88950000  0.70810000  0.74350000  1
  H  H45  1  0.88950000  0.79190000  0.75650000  1
  H  H46  1  0.91680000  0.15540000  0.15550000  1
  H  H47  1  0.91680000  0.34460000  0.34450000  1
  H  H48  1  0.92300000  0.13040000  0.30970000  1
  H  H49  1  0.92300000  0.36960000  0.19030000  1
  H  H50  1  0.99500000  0.05400000  0.87100000  1
  H  H51  1  0.99500000  0.44600000  0.62900000  1
  C  C52  1  0.04020000  0.25000000  0.25000000  1
  C  C53  1  0.06240000  0.73940000  0.81694000  1
  C  C54  1  0.06240000  0.76060000  0.68306000  1
  C  C55  1  0.10830000  0.66990000  0.83741000  1
  C  C56  1  0.10830000  0.83010000  0.66259000  1
  C  C57  1  0.11090000  0.70210000  0.64140000  1
  C  C58  1  0.11090000  0.79790000  0.85860000  1
  C  C59  1  0.20100000  0.65900000  0.89930000  1
  C  C60  1  0.20100000  0.84100000  0.60070000  1
  C  C61  1  0.20110000  0.71280000  0.57847000  1
  C  C62  1  0.20110000  0.78720000  0.92153000  1
  C  C63  1  0.24560000  0.64960000  0.53200000  1
  C  C64  1  0.24560000  0.85040000  0.96800000  1
  C  C65  1  0.24580000  0.71780000  0.94150000  1
  C  C66  1  0.24580000  0.78220000  0.55850000  1
  C  C67  1  0.24980000  0.58360000  0.92020000  1
  C  C68  1  0.24980000  0.91640000  0.57980000  1
  C  C69  1  0.25020000  0.08360000  0.07980000  1
  C  C70  1  0.25020000  0.41640000  0.42020000  1
  C  C71  1  0.25420000  0.21780000  0.05850000  1
  C  C72  1  0.25420000  0.28220000  0.44150000  1
  C  C73  1  0.25440000  0.14960000  0.46800000  1
  C  C74  1  0.25440000  0.35040000  0.03200000  1
  C  C75  1  0.29890000  0.21280000  0.42153000  1
  C  C76  1  0.29890000  0.28720000  0.07847000  1
  C  C77  1  0.29900000  0.15900000  0.10070000  1
  C  C78  1  0.29900000  0.34100000  0.39930000  1
  C  C79  1  0.38910000  0.20210000  0.35860000  1
  C  C80  1  0.38910000  0.29790000  0.14140000  1
  C  C81  1  0.39170000  0.16990000  0.16259000  1
  C  C82  1  0.39170000  0.33010000  0.33741000  1
  C  C83  1  0.43760000  0.23940000  0.18306000  1
  C  C84  1  0.43760000  0.26060000  0.31694000  1
  C  C85  1  0.45980000  0.75000000  0.75000000  1
  C  C86  1  0.54020000  0.25000000  0.25000000  1
  C  C87  1  0.56240000  0.73940000  0.68306000  1
  C  C88  1  0.56240000  0.76060000  0.81694000  1
  C  C89  1  0.60830000  0.66990000  0.66259000  1
  C  C90  1  0.60830000  0.83010000  0.83741000  1
  C  C91  1  0.61090000  0.70210000  0.85860000  1
  C  C92  1  0.61090000  0.79790000  0.64140000  1
  C  C93  1  0.70100000  0.65900000  0.60070000  1
  C  C94  1  0.70100000  0.84100000  0.89930000  1
  C  C95  1  0.70110000  0.71280000  0.92153000  1
  C  C96  1  0.70110000  0.78720000  0.57847000  1
  C  C97  1  0.74560000  0.64960000  0.96800000  1
  C  C98  1  0.74560000  0.85040000  0.53200000  1
  C  C99  1  0.74580000  0.71780000  0.55850000  1
  C  C100  1  0.74580000  0.78220000  0.94150000  1
  C  C101  1  0.74980000  0.58360000  0.57980000  1
  C  C102  1  0.74980000  0.91640000  0.92020000  1
  C  C103  1  0.75020000  0.08360000  0.42020000  1
  C  C104  1  0.75020000  0.41640000  0.07980000  1
  C  C105  1  0.75420000  0.21780000  0.44150000  1
  C  C106  1  0.75420000  0.28220000  0.05850000  1
  C  C107  1  0.75440000  0.14960000  0.03200000  1
  C  C108  1  0.75440000  0.35040000  0.46800000  1
  C  C109  1  0.79890000  0.21280000  0.07847000  1
  C  C110  1  0.79890000  0.28720000  0.42153000  1
  C  C111  1  0.79900000  0.15900000  0.39930000  1
  C  C112  1  0.79900000  0.34100000  0.10070000  1
  C  C113  1  0.88910000  0.20210000  0.14140000  1
  C  C114  1  0.88910000  0.29790000  0.35860000  1
  C  C115  1  0.89170000  0.16990000  0.33741000  1
  C  C116  1  0.89170000  0.33010000  0.16259000  1
  C  C117  1  0.93760000  0.23940000  0.31694000  1
  C  C118  1  0.93760000  0.26060000  0.18306000  1
  C  C119  1  0.95980000  0.75000000  0.75000000  1
  O  O120  1  0.05330000  0.55719000  0.41685000  1
  O  O121  1  0.05330000  0.94281000  0.08315000  1
  O  O122  1  0.15130000  0.07776000  0.02771000  1
  O  O123  1  0.15130000  0.42224000  0.47229000  1
  O  O124  1  0.19220000  0.53271000  0.88477000  1
  O  O125  1  0.19220000  0.96729000  0.61523000  1
  O  O126  1  0.22730000  0.16322000  0.53457000  1
  O  O127  1  0.22730000  0.33678000  0.96543000  1
  O  O128  1  0.24750000  0.08743000  0.44293000  1
  O  O129  1  0.24750000  0.41257000  0.05707000  1
  O  O130  1  0.25250000  0.58743000  0.55707000  1
  O  O131  1  0.25250000  0.91257000  0.94293000  1
  O  O132  1  0.27270000  0.66322000  0.46543000  1
  O  O133  1  0.27270000  0.83678000  0.03457000  1
  O  O134  1  0.30780000  0.03271000  0.11523000  1
  O  O135  1  0.30780000  0.46729000  0.38477000  1
  O  O136  1  0.34870000  0.57776000  0.97229000  1
  O  O137  1  0.34870000  0.92224000  0.52771000  1
  O  O138  1  0.44670000  0.05719000  0.58315000  1
  O  O139  1  0.44670000  0.44281000  0.91685000  1
  O  O140  1  0.55330000  0.55719000  0.08315000  1
  O  O141  1  0.55330000  0.94281000  0.41685000  1
  O  O142  1  0.65130000  0.07776000  0.47229000  1
  O  O143  1  0.65130000  0.42224000  0.02771000  1
  O  O144  1  0.69220000  0.53271000  0.61523000  1
  O  O145  1  0.69220000  0.96729000  0.88477000  1
  O  O146  1  0.72730000  0.16322000  0.96543000  1
  O  O147  1  0.72730000  0.33678000  0.53457000  1
  O  O148  1  0.74750000  0.08743000  0.05707000  1
  O  O149  1  0.74750000  0.41257000  0.44293000  1
  O  O150  1  0.75250000  0.58743000  0.94293000  1
  O  O151  1  0.75250000  0.91257000  0.55707000  1
  O  O152  1  0.77270000  0.66322000  0.03457000  1
  O  O153  1  0.77270000  0.83678000  0.46543000  1
  O  O154  1  0.80780000  0.03271000  0.38477000  1
  O  O155  1  0.80780000  0.46729000  0.11523000  1
  O  O156  1  0.84870000  0.57776000  0.52771000  1
  O  O157  1  0.84870000  0.92224000  0.97229000  1
  O  O158  1  0.94670000  0.05719000  0.91685000  1
  O  O159  1  0.94670000  0.44281000  0.58315000  1
