# generated using pymatgen
data_CuH14C20(NO)4
_symmetry_space_group_name_H-M   'P 1'
_cell_length_a   13.44250000
_cell_length_b   14.42040000
_cell_length_c   20.44690000
_cell_angle_alpha   90.00000000
_cell_angle_beta   108.16800000
_cell_angle_gamma   90.00000000
_symmetry_Int_Tables_number   1
_chemical_formula_structural   CuH14C20(NO)4
_chemical_formula_sum   'Cu6 H84 C120 N24 O24'
_cell_volume   3765.95674063
_cell_formula_units_Z   6
loop_
 _symmetry_equiv_pos_site_id
 _symmetry_equiv_pos_as_xyz
  1  'x, y, z'
loop_
 _atom_site_type_symbol
 _atom_site_label
 _atom_site_symmetry_multiplicity
 _atom_site_fract_x
 _atom_site_fract_y
 _atom_site_fract_z
 _atom_site_occupancy
  Cu  Cu0  1  0.28011000  0.01715000  0.01230000  1
  Cu  Cu1  1  0.28011000  0.48285000  0.51230000  1
  Cu  Cu2  1  0.50000000  0.00000000  0.50000000  1
  Cu  Cu3  1  0.50000000  0.50000000  0.00000000  1
  Cu  Cu4  1  0.71989000  0.51715000  0.48770000  1
  Cu  Cu5  1  0.71989000  0.98285000  0.98770000  1
  H  H6  1  0.02770000  0.58900000  0.73190000  1
  H  H7  1  0.02770000  0.91100000  0.23190000  1
  H  H8  1  0.07750000  0.10900000  0.07490000  1
  H  H9  1  0.07750000  0.39100000  0.57490000  1
  H  H10  1  0.09160000  0.61140000  0.51350000  1
  H  H11  1  0.09160000  0.88860000  0.01350000  1
  H  H12  1  0.11050000  0.04950000  0.86640000  1
  H  H13  1  0.11050000  0.45050000  0.36640000  1
  H  H14  1  0.15390000  0.60570000  0.83660000  1
  H  H15  1  0.15390000  0.89430000  0.33660000  1
  H  H16  1  0.18740000  0.12200000  0.18670000  1
  H  H17  1  0.18740000  0.37800000  0.68670000  1
  H  H18  1  0.19800000  0.22420000  0.78120000  1
  H  H19  1  0.19800000  0.27580000  0.28120000  1
  H  H20  1  0.22480000  0.21570000  0.67550000  1
  H  H21  1  0.22480000  0.28430000  0.17550000  1
  H  H22  1  0.27570000  0.21280000  0.57580000  1
  H  H23  1  0.27570000  0.28720000  0.07580000  1
  H  H24  1  0.28270000  0.61790000  0.70800000  1
  H  H25  1  0.28270000  0.88210000  0.20800000  1
  H  H26  1  0.31110000  0.10860000  0.29450000  1
  H  H27  1  0.31110000  0.39140000  0.79450000  1
  H  H28  1  0.33730000  0.16340000  0.48470000  1
  H  H29  1  0.33730000  0.33660000  0.98470000  1
  H  H30  1  0.34810000  0.70290000  0.80810000  1
  H  H31  1  0.34810000  0.79710000  0.30810000  1
  H  H32  1  0.37790000  0.09720000  0.16570000  1
  H  H33  1  0.37790000  0.40280000  0.66570000  1
  H  H34  1  0.39610000  0.69180000  0.39450000  1
  H  H35  1  0.39610000  0.80820000  0.89450000  1
  H  H36  1  0.42560000  0.03750000  0.85710000  1
  H  H37  1  0.42560000  0.46250000  0.35710000  1
  H  H38  1  0.45090000  0.72840000  0.11810000  1
  H  H39  1  0.45090000  0.77160000  0.61810000  1
  H  H40  1  0.45990000  0.03590000  0.75370000  1
  H  H41  1  0.45990000  0.46410000  0.25370000  1
  H  H42  1  0.47460000  0.01420000  0.64760000  1
  H  H43  1  0.47460000  0.48580000  0.14760000  1
  H  H44  1  0.48240000  0.14420000  0.28210000  1
  H  H45  1  0.48240000  0.35580000  0.78210000  1
  H  H46  1  0.48990000  0.11140000  0.01100000  1
  H  H47  1  0.48990000  0.38860000  0.51100000  1
  H  H48  1  0.51010000  0.61140000  0.48900000  1
  H  H49  1  0.51010000  0.88860000  0.98900000  1
  H  H50  1  0.51760000  0.64420000  0.21790000  1
  H  H51  1  0.51760000  0.85580000  0.71790000  1
  H  H52  1  0.52540000  0.51420000  0.85240000  1
  H  H53  1  0.52540000  0.98580000  0.35240000  1
  H  H54  1  0.54010000  0.53590000  0.74630000  1
  H  H55  1  0.54010000  0.96410000  0.24630000  1
  H  H56  1  0.54910000  0.22840000  0.38190000  1
  H  H57  1  0.54910000  0.27160000  0.88190000  1
  H  H58  1  0.57440000  0.53750000  0.64290000  1
  H  H59  1  0.57440000  0.96250000  0.14290000  1
  H  H60  1  0.60390000  0.19180000  0.10550000  1
  H  H61  1  0.60390000  0.30820000  0.60550000  1
  H  H62  1  0.62210000  0.59720000  0.33430000  1
  H  H63  1  0.62210000  0.90280000  0.83430000  1
  H  H64  1  0.65190000  0.20290000  0.69190000  1
  H  H65  1  0.65190000  0.29710000  0.19190000  1
  H  H66  1  0.66270000  0.66340000  0.01530000  1
  H  H67  1  0.66270000  0.83660000  0.51530000  1
  H  H68  1  0.68890000  0.60860000  0.20550000  1
  H  H69  1  0.68890000  0.89140000  0.70550000  1
  H  H70  1  0.71730000  0.11790000  0.79200000  1
  H  H71  1  0.71730000  0.38210000  0.29200000  1
  H  H72  1  0.72430000  0.71280000  0.92420000  1
  H  H73  1  0.72430000  0.78720000  0.42420000  1
  H  H74  1  0.77520000  0.71570000  0.82450000  1
  H  H75  1  0.77520000  0.78430000  0.32450000  1
  H  H76  1  0.80200000  0.72420000  0.71880000  1
  H  H77  1  0.80200000  0.77580000  0.21880000  1
  H  H78  1  0.81260000  0.62200000  0.31330000  1
  H  H79  1  0.81260000  0.87800000  0.81330000  1
  H  H80  1  0.84610000  0.10570000  0.66340000  1
  H  H81  1  0.84610000  0.39430000  0.16340000  1
  H  H82  1  0.88950000  0.54950000  0.63360000  1
  H  H83  1  0.88950000  0.95050000  0.13360000  1
  H  H84  1  0.90840000  0.11140000  0.98650000  1
  H  H85  1  0.90840000  0.38860000  0.48650000  1
  H  H86  1  0.92250000  0.60900000  0.42510000  1
  H  H87  1  0.92250000  0.89100000  0.92510000  1
  H  H88  1  0.97230000  0.08900000  0.76810000  1
  H  H89  1  0.97230000  0.41100000  0.26810000  1
  C  C90  1  0.01130000  0.02700000  0.13170000  1
  C  C91  1  0.01130000  0.47300000  0.63170000  1
  C  C92  1  0.07380000  0.57710000  0.47290000  1
  C  C93  1  0.07380000  0.92290000  0.97290000  1
  C  C94  1  0.08330000  0.00870000  0.89170000  1
  C  C95  1  0.08330000  0.49130000  0.39170000  1
  C  C96  1  0.08500000  0.54930000  0.74400000  1
  C  C97  1  0.08500000  0.95070000  0.24400000  1
  C  C98  1  0.09360000  0.01880000  0.19820000  1
  C  C99  1  0.09360000  0.48120000  0.69820000  1
  C  C100  1  0.16040000  0.55880000  0.80690000  1
  C  C101  1  0.16040000  0.94120000  0.30690000  1
  C  C102  1  0.17950000  0.07680000  0.21720000  1
  C  C103  1  0.17950000  0.42320000  0.71720000  1
  C  C104  1  0.24560000  0.00010000  0.32670000  1
  C  C105  1  0.24560000  0.49990000  0.82670000  1
  C  C106  1  0.24910000  0.18460000  0.77530000  1
  C  C107  1  0.24910000  0.31540000  0.27530000  1
  C  C108  1  0.25450000  0.06810000  0.28170000  1
  C  C109  1  0.25450000  0.43190000  0.78170000  1
  C  C110  1  0.26610000  0.18070000  0.71210000  1
  C  C111  1  0.26610000  0.31930000  0.21210000  1
  C  C112  1  0.28350000  0.12800000  0.89720000  1
  C  C113  1  0.28350000  0.37200000  0.39720000  1
  C  C114  1  0.30650000  0.13080000  0.82970000  1
  C  C115  1  0.30650000  0.36920000  0.32970000  1
  C  C116  1  0.32810000  0.62440000  0.59110000  1
  C  C117  1  0.32810000  0.87560000  0.09110000  1
  C  C118  1  0.32870000  0.51240000  0.89550000  1
  C  C119  1  0.32870000  0.98760000  0.39550000  1
  C  C120  1  0.33010000  0.66560000  0.71000000  1
  C  C121  1  0.33010000  0.83440000  0.21000000  1
  C  C122  1  0.34490000  0.12470000  0.70330000  1
  C  C123  1  0.34490000  0.37530000  0.20330000  1
  C  C124  1  0.35720000  0.13950000  0.52920000  1
  C  C125  1  0.35720000  0.36050000  0.02920000  1
  C  C126  1  0.36090000  0.68530000  0.65310000  1
  C  C127  1  0.36090000  0.81470000  0.15310000  1
  C  C128  1  0.36590000  0.11640000  0.63730000  1
  C  C129  1  0.36590000  0.38360000  0.13730000  1
  C  C130  1  0.36950000  0.71640000  0.77010000  1
  C  C131  1  0.36950000  0.78360000  0.27010000  1
  C  C132  1  0.38600000  0.07410000  0.82090000  1
  C  C133  1  0.38600000  0.42590000  0.32090000  1
  C  C134  1  0.40560000  0.07230000  0.75880000  1
  C  C135  1  0.40560000  0.42770000  0.25880000  1
  C  C136  1  0.42050000  0.11190000  0.13910000  1
  C  C137  1  0.42050000  0.38810000  0.63910000  1
  C  C138  1  0.43070000  0.74270000  0.15640000  1
  C  C139  1  0.43070000  0.75730000  0.65640000  1
  C  C140  1  0.43170000  0.05790000  0.61880000  1
  C  C141  1  0.43170000  0.44210000  0.11880000  1
  C  C142  1  0.44090000  0.71240000  0.27370000  1
  C  C143  1  0.44090000  0.78760000  0.77370000  1
  C  C144  1  0.47060000  0.69210000  0.21620000  1
  C  C145  1  0.47060000  0.80790000  0.71620000  1
  C  C146  1  0.48140000  0.11880000  0.05410000  1
  C  C147  1  0.48140000  0.38120000  0.55410000  1
  C  C148  1  0.49030000  0.66280000  0.33930000  1
  C  C149  1  0.49030000  0.83720000  0.83930000  1
  C  C150  1  0.50970000  0.16280000  0.16070000  1
  C  C151  1  0.50970000  0.33720000  0.66070000  1
  C  C152  1  0.51860000  0.61880000  0.44590000  1
  C  C153  1  0.51860000  0.88120000  0.94590000  1
  C  C154  1  0.52940000  0.19210000  0.28380000  1
  C  C155  1  0.52940000  0.30790000  0.78380000  1
  C  C156  1  0.55910000  0.21240000  0.22630000  1
  C  C157  1  0.55910000  0.28760000  0.72630000  1
  C  C158  1  0.56830000  0.55790000  0.88120000  1
  C  C159  1  0.56830000  0.94210000  0.38120000  1
  C  C160  1  0.56930000  0.24270000  0.34360000  1
  C  C161  1  0.56930000  0.25730000  0.84360000  1
  C  C162  1  0.57950000  0.61190000  0.36090000  1
  C  C163  1  0.57950000  0.88810000  0.86090000  1
  C  C164  1  0.59440000  0.57230000  0.74120000  1
  C  C165  1  0.59440000  0.92770000  0.24120000  1
  C  C166  1  0.61400000  0.57410000  0.67910000  1
  C  C167  1  0.61400000  0.92590000  0.17910000  1
  C  C168  1  0.63050000  0.21640000  0.72990000  1
  C  C169  1  0.63050000  0.28360000  0.22990000  1
  C  C170  1  0.63410000  0.61640000  0.86270000  1
  C  C171  1  0.63410000  0.88360000  0.36270000  1
  C  C172  1  0.63910000  0.18530000  0.84690000  1
  C  C173  1  0.63910000  0.31470000  0.34690000  1
  C  C174  1  0.64280000  0.63950000  0.97080000  1
  C  C175  1  0.64280000  0.86050000  0.47080000  1
  C  C176  1  0.65510000  0.62470000  0.79670000  1
  C  C177  1  0.65510000  0.87530000  0.29670000  1
  C  C178  1  0.66990000  0.16560000  0.79000000  1
  C  C179  1  0.66990000  0.33440000  0.29000000  1
  C  C180  1  0.67130000  0.01240000  0.60450000  1
  C  C181  1  0.67130000  0.48760000  0.10450000  1
  C  C182  1  0.67190000  0.12440000  0.90890000  1
  C  C183  1  0.67190000  0.37560000  0.40890000  1
  C  C184  1  0.69350000  0.63080000  0.67030000  1
  C  C185  1  0.69350000  0.86920000  0.17030000  1
  C  C186  1  0.71650000  0.62800000  0.60280000  1
  C  C187  1  0.71650000  0.87200000  0.10280000  1
  C  C188  1  0.73390000  0.68070000  0.78790000  1
  C  C189  1  0.73390000  0.81930000  0.28790000  1
  C  C190  1  0.74550000  0.56810000  0.21830000  1
  C  C191  1  0.74550000  0.93190000  0.71830000  1
  C  C192  1  0.75090000  0.68460000  0.72470000  1
  C  C193  1  0.75090000  0.81540000  0.22470000  1
  C  C194  1  0.75440000  0.50010000  0.17330000  1
  C  C195  1  0.75440000  0.99990000  0.67330000  1
  C  C196  1  0.82050000  0.57680000  0.28280000  1
  C  C197  1  0.82050000  0.92320000  0.78280000  1
  C  C198  1  0.83960000  0.05880000  0.69310000  1
  C  C199  1  0.83960000  0.44120000  0.19310000  1
  C  C200  1  0.90640000  0.51880000  0.30180000  1
  C  C201  1  0.90640000  0.98120000  0.80180000  1
  C  C202  1  0.91500000  0.04930000  0.75600000  1
  C  C203  1  0.91500000  0.45070000  0.25600000  1
  C  C204  1  0.91670000  0.50870000  0.60830000  1
  C  C205  1  0.91670000  0.99130000  0.10830000  1
  C  C206  1  0.92620000  0.07710000  0.02710000  1
  C  C207  1  0.92620000  0.42290000  0.52710000  1
  C  C208  1  0.98870000  0.52700000  0.36830000  1
  C  C209  1  0.98870000  0.97300000  0.86830000  1
  N  N210  1  0.02240000  0.08040000  0.07680000  1
  N  N211  1  0.02240000  0.41960000  0.57680000  1
  N  N212  1  0.13710000  0.51970000  0.45610000  1
  N  N213  1  0.13710000  0.98030000  0.95610000  1
  N  N214  1  0.32020000  0.16880000  0.57930000  1
  N  N215  1  0.32020000  0.33120000  0.07930000  1
  N  N216  1  0.40290000  0.08530000  0.07210000  1
  N  N217  1  0.40290000  0.41470000  0.57210000  1
  N  N218  1  0.42550000  0.07250000  0.55145000  1
  N  N219  1  0.42550000  0.42750000  0.05145000  1
  N  N220  1  0.45290000  0.66500000  0.39380000  1
  N  N221  1  0.45290000  0.83500000  0.89380000  1
  N  N222  1  0.54710000  0.16500000  0.10620000  1
  N  N223  1  0.54710000  0.33500000  0.60620000  1
  N  N224  1  0.57450000  0.57250000  0.94855000  1
  N  N225  1  0.57450000  0.92750000  0.44855000  1
  N  N226  1  0.59710000  0.58530000  0.42790000  1
  N  N227  1  0.59710000  0.91470000  0.92790000  1
  N  N228  1  0.67980000  0.66880000  0.92070000  1
  N  N229  1  0.67980000  0.83120000  0.42070000  1
  N  N230  1  0.86290000  0.01970000  0.04390000  1
  N  N231  1  0.86290000  0.48030000  0.54390000  1
  N  N232  1  0.97760000  0.58040000  0.42320000  1
  N  N233  1  0.97760000  0.91960000  0.92320000  1
  O  O234  1  0.23440000  0.19270000  0.91330000  1
  O  O235  1  0.23440000  0.30730000  0.41330000  1
  O  O236  1  0.27060000  0.55440000  0.59258000  1
  O  O237  1  0.27060000  0.94560000  0.09258000  1
  O  O238  1  0.31500000  0.05510000  0.93177000  1
  O  O239  1  0.31500000  0.44490000  0.43177000  1
  O  O240  1  0.32420000  0.57860000  0.93250000  1
  O  O241  1  0.32420000  0.92140000  0.43250000  1
  O  O242  1  0.35730000  0.64140000  0.53999000  1
  O  O243  1  0.35730000  0.85860000  0.03999000  1
  O  O244  1  0.40220000  0.04680000  0.41184000  1
  O  O245  1  0.40220000  0.45320000  0.91184000  1
  O  O246  1  0.59780000  0.54680000  0.08816000  1
  O  O247  1  0.59780000  0.95320000  0.58816000  1
  O  O248  1  0.64270000  0.14140000  0.96001000  1
  O  O249  1  0.64270000  0.35860000  0.46001000  1
  O  O250  1  0.67580000  0.07860000  0.56750000  1
  O  O251  1  0.67580000  0.42140000  0.06750000  1
  O  O252  1  0.68500000  0.55510000  0.56823000  1
  O  O253  1  0.68500000  0.94490000  0.06823000  1
  O  O254  1  0.72940000  0.05440000  0.90742000  1
  O  O255  1  0.72940000  0.44560000  0.40742000  1
  O  O256  1  0.76560000  0.69270000  0.58670000  1
  O  O257  1  0.76560000  0.80730000  0.08670000  1
