# generated using pymatgen
data_Co15H60C156(N3O13)4
_symmetry_space_group_name_H-M   'P 1'
_cell_length_a   15.48400000
_cell_length_b   30.16300000
_cell_length_c   30.16300000
_cell_angle_alpha   90.00000000
_cell_angle_beta   90.00000000
_cell_angle_gamma   90.00000000
_symmetry_Int_Tables_number   1
_chemical_formula_structural   Co15H60C156(N3O13)4
_chemical_formula_sum   'Co30 H120 C312 N24 O104'
_cell_volume   14087.44491440
_cell_formula_units_Z   2
loop_
 _symmetry_equiv_pos_site_id
 _symmetry_equiv_pos_as_xyz
  1  'x, y, z'
loop_
 _atom_site_type_symbol
 _atom_site_label
 _atom_site_symmetry_multiplicity
 _atom_site_fract_x
 _atom_site_fract_y
 _atom_site_fract_z
 _atom_site_occupancy
  Co  Co0  1  0.00000000  0.00000000  0.50000000  1
  Co  Co1  1  0.00000000  0.24057000  0.25943000  1
  Co  Co2  1  0.00000000  0.25943000  0.75943000  1
  Co  Co3  1  0.00000000  0.50000000  0.00000000  1
  Co  Co4  1  0.00000000  0.74057000  0.24057000  1
  Co  Co5  1  0.00000000  0.75943000  0.74057000  1
  Co  Co6  1  0.37749000  0.01704000  0.75280000  1
  Co  Co7  1  0.37749000  0.24720000  0.01704000  1
  Co  Co8  1  0.37749000  0.25280000  0.51704000  1
  Co  Co9  1  0.37749000  0.48296000  0.25280000  1
  Co  Co10  1  0.37749000  0.51704000  0.74720000  1
  Co  Co11  1  0.37749000  0.74720000  0.48296000  1
  Co  Co12  1  0.37749000  0.75280000  0.98296000  1
  Co  Co13  1  0.37749000  0.98296000  0.24720000  1
  Co  Co14  1  0.50000000  0.01030000  0.83867000  1
  Co  Co15  1  0.50000000  0.16133000  0.01030000  1
  Co  Co16  1  0.50000000  0.33867000  0.51030000  1
  Co  Co17  1  0.50000000  0.48970000  0.33867000  1
  Co  Co18  1  0.50000000  0.51030000  0.66133000  1
  Co  Co19  1  0.50000000  0.66133000  0.48970000  1
  Co  Co20  1  0.50000000  0.83867000  0.98970000  1
  Co  Co21  1  0.50000000  0.98970000  0.16133000  1
  Co  Co22  1  0.62251000  0.01704000  0.75280000  1
  Co  Co23  1  0.62251000  0.24720000  0.01704000  1
  Co  Co24  1  0.62251000  0.25280000  0.51704000  1
  Co  Co25  1  0.62251000  0.48296000  0.25280000  1
  Co  Co26  1  0.62251000  0.51704000  0.74720000  1
  Co  Co27  1  0.62251000  0.74720000  0.48296000  1
  Co  Co28  1  0.62251000  0.75280000  0.98296000  1
  Co  Co29  1  0.62251000  0.98296000  0.24720000  1
  H  H30  1  0.07950000  0.11600000  0.61600000  1
  H  H31  1  0.07950000  0.38400000  0.11600000  1
  H  H32  1  0.07950000  0.61600000  0.88400000  1
  H  H33  1  0.07950000  0.88400000  0.38400000  1
  H  H34  1  0.08040000  0.12580000  0.14310000  1
  H  H35  1  0.08040000  0.14310000  0.87420000  1
  H  H36  1  0.08040000  0.35690000  0.37420000  1
  H  H37  1  0.08040000  0.37420000  0.64310000  1
  H  H38  1  0.08040000  0.62580000  0.35690000  1
  H  H39  1  0.08040000  0.64310000  0.62580000  1
  H  H40  1  0.08040000  0.85690000  0.12580000  1
  H  H41  1  0.08040000  0.87420000  0.85690000  1
  H  H42  1  0.23400000  0.13030000  0.79590000  1
  H  H43  1  0.23400000  0.20410000  0.13030000  1
  H  H44  1  0.23400000  0.29590000  0.63030000  1
  H  H45  1  0.23400000  0.36970000  0.29590000  1
  H  H46  1  0.23400000  0.63030000  0.70410000  1
  H  H47  1  0.23400000  0.70410000  0.36970000  1
  H  H48  1  0.23400000  0.79590000  0.86970000  1
  H  H49  1  0.23400000  0.86970000  0.20410000  1
  H  H50  1  0.23540000  0.10750000  0.22150000  1
  H  H51  1  0.23540000  0.22150000  0.89250000  1
  H  H52  1  0.23540000  0.27850000  0.39250000  1
  H  H53  1  0.23540000  0.39250000  0.72150000  1
  H  H54  1  0.23540000  0.60750000  0.27850000  1
  H  H55  1  0.23540000  0.72150000  0.60750000  1
  H  H56  1  0.23540000  0.77850000  0.10750000  1
  H  H57  1  0.23540000  0.89250000  0.77850000  1
  H  H58  1  0.23780000  0.03670000  0.63050000  1
  H  H59  1  0.23780000  0.13050000  0.53670000  1
  H  H60  1  0.23780000  0.36950000  0.03670000  1
  H  H61  1  0.23780000  0.46330000  0.13050000  1
  H  H62  1  0.23780000  0.53670000  0.86950000  1
  H  H63  1  0.23780000  0.63050000  0.96330000  1
  H  H64  1  0.23780000  0.86950000  0.46330000  1
  H  H65  1  0.23780000  0.96330000  0.36950000  1
  H  H66  1  0.31830000  0.20700000  0.23430000  1
  H  H67  1  0.31830000  0.23430000  0.79300000  1
  H  H68  1  0.31830000  0.26570000  0.29300000  1
  H  H69  1  0.31830000  0.29300000  0.73430000  1
  H  H70  1  0.31830000  0.70700000  0.26570000  1
  H  H71  1  0.31830000  0.73430000  0.70700000  1
  H  H72  1  0.31830000  0.76570000  0.20700000  1
  H  H73  1  0.31830000  0.79300000  0.76570000  1
  H  H74  1  0.32290000  0.02930000  0.52930000  1
  H  H75  1  0.32290000  0.47070000  0.02930000  1
  H  H76  1  0.32290000  0.52930000  0.97070000  1
  H  H77  1  0.32290000  0.97070000  0.47070000  1
  H  H78  1  0.39450000  0.09910000  0.11760000  1
  H  H79  1  0.39450000  0.11760000  0.90090000  1
  H  H80  1  0.39450000  0.38240000  0.40090000  1
  H  H81  1  0.39450000  0.40090000  0.61760000  1
  H  H82  1  0.39450000  0.59910000  0.38240000  1
  H  H83  1  0.39450000  0.61760000  0.59910000  1
  H  H84  1  0.39450000  0.88240000  0.09910000  1
  H  H85  1  0.39450000  0.90090000  0.88240000  1
  H  H86  1  0.40580000  0.13630000  0.63630000  1
  H  H87  1  0.40580000  0.36370000  0.13630000  1
  H  H88  1  0.40580000  0.63630000  0.86370000  1
  H  H89  1  0.40580000  0.86370000  0.36370000  1
  H  H90  1  0.59420000  0.13630000  0.63630000  1
  H  H91  1  0.59420000  0.36370000  0.13630000  1
  H  H92  1  0.59420000  0.63630000  0.86370000  1
  H  H93  1  0.59420000  0.86370000  0.36370000  1
  H  H94  1  0.60550000  0.09910000  0.11760000  1
  H  H95  1  0.60550000  0.11760000  0.90090000  1
  H  H96  1  0.60550000  0.38240000  0.40090000  1
  H  H97  1  0.60550000  0.40090000  0.61760000  1
  H  H98  1  0.60550000  0.59910000  0.38240000  1
  H  H99  1  0.60550000  0.61760000  0.59910000  1
  H  H100  1  0.60550000  0.88240000  0.09910000  1
  H  H101  1  0.60550000  0.90090000  0.88240000  1
  H  H102  1  0.67710000  0.02930000  0.52930000  1
  H  H103  1  0.67710000  0.47070000  0.02930000  1
  H  H104  1  0.67710000  0.52930000  0.97070000  1
  H  H105  1  0.67710000  0.97070000  0.47070000  1
  H  H106  1  0.68170000  0.20700000  0.23430000  1
  H  H107  1  0.68170000  0.23430000  0.79300000  1
  H  H108  1  0.68170000  0.26570000  0.29300000  1
  H  H109  1  0.68170000  0.29300000  0.73430000  1
  H  H110  1  0.68170000  0.70700000  0.26570000  1
  H  H111  1  0.68170000  0.73430000  0.70700000  1
  H  H112  1  0.68170000  0.76570000  0.20700000  1
  H  H113  1  0.68170000  0.79300000  0.76570000  1
  H  H114  1  0.76220000  0.03670000  0.63050000  1
  H  H115  1  0.76220000  0.13050000  0.53670000  1
  H  H116  1  0.76220000  0.36950000  0.03670000  1
  H  H117  1  0.76220000  0.46330000  0.13050000  1
  H  H118  1  0.76220000  0.53670000  0.86950000  1
  H  H119  1  0.76220000  0.63050000  0.96330000  1
  H  H120  1  0.76220000  0.86950000  0.46330000  1
  H  H121  1  0.76220000  0.96330000  0.36950000  1
  H  H122  1  0.76460000  0.10750000  0.22150000  1
  H  H123  1  0.76460000  0.22150000  0.89250000  1
  H  H124  1  0.76460000  0.27850000  0.39250000  1
  H  H125  1  0.76460000  0.39250000  0.72150000  1
  H  H126  1  0.76460000  0.60750000  0.27850000  1
  H  H127  1  0.76460000  0.72150000  0.60750000  1
  H  H128  1  0.76460000  0.77850000  0.10750000  1
  H  H129  1  0.76460000  0.89250000  0.77850000  1
  H  H130  1  0.76600000  0.13030000  0.79590000  1
  H  H131  1  0.76600000  0.20410000  0.13030000  1
  H  H132  1  0.76600000  0.29590000  0.63030000  1
  H  H133  1  0.76600000  0.36970000  0.29590000  1
  H  H134  1  0.76600000  0.63030000  0.70410000  1
  H  H135  1  0.76600000  0.70410000  0.36970000  1
  H  H136  1  0.76600000  0.79590000  0.86970000  1
  H  H137  1  0.76600000  0.86970000  0.20410000  1
  H  H138  1  0.91960000  0.12580000  0.14310000  1
  H  H139  1  0.91960000  0.14310000  0.87420000  1
  H  H140  1  0.91960000  0.35690000  0.37420000  1
  H  H141  1  0.91960000  0.37420000  0.64310000  1
  H  H142  1  0.91960000  0.62580000  0.35690000  1
  H  H143  1  0.91960000  0.64310000  0.62580000  1
  H  H144  1  0.91960000  0.85690000  0.12580000  1
  H  H145  1  0.91960000  0.87420000  0.85690000  1
  H  H146  1  0.92050000  0.11600000  0.61600000  1
  H  H147  1  0.92050000  0.38400000  0.11600000  1
  H  H148  1  0.92050000  0.61600000  0.88400000  1
  H  H149  1  0.92050000  0.88400000  0.38400000  1
  C  C150  1  0.04330000  0.09800000  0.59800000  1
  C  C151  1  0.04330000  0.40200000  0.09800000  1
  C  C152  1  0.04330000  0.59800000  0.90200000  1
  C  C153  1  0.04330000  0.90200000  0.40200000  1
  C  C154  1  0.04430000  0.14360000  0.16130000  1
  C  C155  1  0.04430000  0.16130000  0.85640000  1
  C  C156  1  0.04430000  0.33870000  0.35640000  1
  C  C157  1  0.04430000  0.35640000  0.66130000  1
  C  C158  1  0.04430000  0.64360000  0.33870000  1
  C  C159  1  0.04430000  0.66130000  0.64360000  1
  C  C160  1  0.04430000  0.83870000  0.14360000  1
  C  C161  1  0.04430000  0.85640000  0.83870000  1
  C  C162  1  0.07140000  0.06610000  0.56610000  1
  C  C163  1  0.07140000  0.43390000  0.06610000  1
  C  C164  1  0.07140000  0.56610000  0.93390000  1
  C  C165  1  0.07140000  0.93390000  0.43390000  1
  C  C166  1  0.07230000  0.17500000  0.19320000  1
  C  C167  1  0.07230000  0.19320000  0.82500000  1
  C  C168  1  0.07230000  0.30680000  0.32500000  1
  C  C169  1  0.07230000  0.32500000  0.69320000  1
  C  C170  1  0.07230000  0.67500000  0.30680000  1
  C  C171  1  0.07230000  0.69320000  0.67500000  1
  C  C172  1  0.07230000  0.80680000  0.17500000  1
  C  C173  1  0.07230000  0.82500000  0.80680000  1
  C  C174  1  0.15700000  0.18290000  0.20300000  1
  C  C175  1  0.15700000  0.20300000  0.81710000  1
  C  C176  1  0.15700000  0.29700000  0.31710000  1
  C  C177  1  0.15700000  0.31710000  0.70300000  1
  C  C178  1  0.15700000  0.68290000  0.29700000  1
  C  C179  1  0.15700000  0.70300000  0.68290000  1
  C  C180  1  0.15700000  0.79700000  0.18290000  1
  C  C181  1  0.15700000  0.81710000  0.79700000  1
  C  C182  1  0.15710000  0.05730000  0.55730000  1
  C  C183  1  0.15710000  0.44270000  0.05730000  1
  C  C184  1  0.15710000  0.55730000  0.94270000  1
  C  C185  1  0.15710000  0.94270000  0.44270000  1
  C  C186  1  0.18160000  0.21120000  0.23620000  1
  C  C187  1  0.18160000  0.23620000  0.78880000  1
  C  C188  1  0.18160000  0.26380000  0.28880000  1
  C  C189  1  0.18160000  0.28880000  0.73620000  1
  C  C190  1  0.18160000  0.71120000  0.26380000  1
  C  C191  1  0.18160000  0.73620000  0.71120000  1
  C  C192  1  0.18160000  0.76380000  0.21120000  1
  C  C193  1  0.18160000  0.78880000  0.76380000  1
  C  C194  1  0.18330000  0.02580000  0.52580000  1
  C  C195  1  0.18330000  0.47420000  0.02580000  1
  C  C196  1  0.18330000  0.52580000  0.97420000  1
  C  C197  1  0.18330000  0.97420000  0.47420000  1
  C  C198  1  0.22290000  0.08210000  0.58210000  1
  C  C199  1  0.22290000  0.41790000  0.08210000  1
  C  C200  1  0.22290000  0.58210000  0.91790000  1
  C  C201  1  0.22290000  0.91790000  0.41790000  1
  C  C202  1  0.22350000  0.15890000  0.17890000  1
  C  C203  1  0.22350000  0.17890000  0.84110000  1
  C  C204  1  0.22350000  0.32110000  0.34110000  1
  C  C205  1  0.22350000  0.34110000  0.67890000  1
  C  C206  1  0.22350000  0.65890000  0.32110000  1
  C  C207  1  0.22350000  0.67890000  0.65890000  1
  C  C208  1  0.22350000  0.82110000  0.15890000  1
  C  C209  1  0.22350000  0.84110000  0.82110000  1
  C  C210  1  0.25480000  0.14080000  0.82360000  1
  C  C211  1  0.25480000  0.17640000  0.14080000  1
  C  C212  1  0.25480000  0.32360000  0.64080000  1
  C  C213  1  0.25480000  0.35920000  0.32360000  1
  C  C214  1  0.25480000  0.64080000  0.67640000  1
  C  C215  1  0.25480000  0.67640000  0.35920000  1
  C  C216  1  0.25480000  0.82360000  0.85920000  1
  C  C217  1  0.25480000  0.85920000  0.17640000  1
  C  C218  1  0.25670000  0.11960000  0.19450000  1
  C  C219  1  0.25670000  0.19450000  0.88040000  1
  C  C220  1  0.25670000  0.30550000  0.38040000  1
  C  C221  1  0.25670000  0.38040000  0.69450000  1
  C  C222  1  0.25670000  0.61960000  0.30550000  1
  C  C223  1  0.25670000  0.69450000  0.61960000  1
  C  C224  1  0.25670000  0.80550000  0.11960000  1
  C  C225  1  0.25670000  0.88040000  0.80550000  1
  C  C226  1  0.25910000  0.06410000  0.61930000  1
  C  C227  1  0.25910000  0.11930000  0.56410000  1
  C  C228  1  0.25910000  0.38070000  0.06410000  1
  C  C229  1  0.25910000  0.43590000  0.11930000  1
  C  C230  1  0.25910000  0.56410000  0.88070000  1
  C  C231  1  0.25910000  0.61930000  0.93590000  1
  C  C232  1  0.25910000  0.88070000  0.43590000  1
  C  C233  1  0.25910000  0.93590000  0.38070000  1
  C  C234  1  0.26880000  0.22050000  0.24700000  1
  C  C235  1  0.26880000  0.24700000  0.77950000  1
  C  C236  1  0.26880000  0.25300000  0.27950000  1
  C  C237  1  0.26880000  0.27950000  0.74700000  1
  C  C238  1  0.26880000  0.72050000  0.25300000  1
  C  C239  1  0.26880000  0.74700000  0.72050000  1
  C  C240  1  0.26880000  0.75300000  0.22050000  1
  C  C241  1  0.26880000  0.77950000  0.75300000  1
  C  C242  1  0.27370000  0.01600000  0.51600000  1
  C  C243  1  0.27370000  0.48400000  0.01600000  1
  C  C244  1  0.27370000  0.51600000  0.98400000  1
  C  C245  1  0.27370000  0.98400000  0.48400000  1
  C  C246  1  0.31700000  0.11730000  0.84620000  1
  C  C247  1  0.31700000  0.15380000  0.11730000  1
  C  C248  1  0.31700000  0.34620000  0.61730000  1
  C  C249  1  0.31700000  0.38270000  0.34620000  1
  C  C250  1  0.31700000  0.61730000  0.65380000  1
  C  C251  1  0.31700000  0.65380000  0.38270000  1
  C  C252  1  0.31700000  0.84620000  0.88270000  1
  C  C253  1  0.31700000  0.88270000  0.15380000  1
  C  C254  1  0.32040000  0.09750000  0.17160000  1
  C  C255  1  0.32040000  0.17160000  0.90250000  1
  C  C256  1  0.32040000  0.32840000  0.40250000  1
  C  C257  1  0.32040000  0.40250000  0.67160000  1
  C  C258  1  0.32040000  0.59750000  0.32840000  1
  C  C259  1  0.32040000  0.67160000  0.59750000  1
  C  C260  1  0.32040000  0.82840000  0.09750000  1
  C  C261  1  0.32040000  0.90250000  0.82840000  1
  C  C262  1  0.32420000  0.08450000  0.64040000  1
  C  C263  1  0.32420000  0.14040000  0.58450000  1
  C  C264  1  0.32420000  0.35960000  0.08450000  1
  C  C265  1  0.32420000  0.41550000  0.14040000  1
  C  C266  1  0.32420000  0.58450000  0.85960000  1
  C  C267  1  0.32420000  0.64040000  0.91550000  1
  C  C268  1  0.32420000  0.85960000  0.41550000  1
  C  C269  1  0.32420000  0.91550000  0.35960000  1
  C  C270  1  0.35050000  0.11420000  0.13350000  1
  C  C271  1  0.35050000  0.13350000  0.88580000  1
  C  C272  1  0.35050000  0.36650000  0.38580000  1
  C  C273  1  0.35050000  0.38580000  0.63350000  1
  C  C274  1  0.35050000  0.61420000  0.36650000  1
  C  C275  1  0.35050000  0.63350000  0.61420000  1
  C  C276  1  0.35050000  0.86650000  0.11420000  1
  C  C277  1  0.35050000  0.88580000  0.86650000  1
  C  C278  1  0.35400000  0.05420000  0.19010000  1
  C  C279  1  0.35400000  0.19010000  0.94580000  1
  C  C280  1  0.35400000  0.30990000  0.44580000  1
  C  C281  1  0.35400000  0.44580000  0.69010000  1
  C  C282  1  0.35400000  0.55420000  0.30990000  1
  C  C283  1  0.35400000  0.69010000  0.55420000  1
  C  C284  1  0.35400000  0.80990000  0.05420000  1
  C  C285  1  0.35400000  0.94580000  0.80990000  1
  C  C286  1  0.35460000  0.07640000  0.82690000  1
  C  C287  1  0.35460000  0.17310000  0.07640000  1
  C  C288  1  0.35460000  0.32690000  0.57640000  1
  C  C289  1  0.35460000  0.42360000  0.32690000  1
  C  C290  1  0.35460000  0.57640000  0.67310000  1
  C  C291  1  0.35460000  0.67310000  0.42360000  1
  C  C292  1  0.35460000  0.82690000  0.92360000  1
  C  C293  1  0.35460000  0.92360000  0.17310000  1
  C  C294  1  0.35810000  0.12240000  0.62240000  1
  C  C295  1  0.35810000  0.37760000  0.12240000  1
  C  C296  1  0.35810000  0.62240000  0.87760000  1
  C  C297  1  0.35810000  0.87760000  0.37760000  1
  C  C298  1  0.35980000  0.06590000  0.68350000  1
  C  C299  1  0.35980000  0.18350000  0.56590000  1
  C  C300  1  0.35980000  0.31650000  0.06590000  1
  C  C301  1  0.35980000  0.43410000  0.18350000  1
  C  C302  1  0.35980000  0.56590000  0.81650000  1
  C  C303  1  0.35980000  0.68350000  0.93410000  1
  C  C304  1  0.35980000  0.81650000  0.43410000  1
  C  C305  1  0.35980000  0.93410000  0.31650000  1
  C  C306  1  0.64020000  0.06590000  0.68350000  1
  C  C307  1  0.64020000  0.18350000  0.56590000  1
  C  C308  1  0.64020000  0.31650000  0.06590000  1
  C  C309  1  0.64020000  0.43410000  0.18350000  1
  C  C310  1  0.64020000  0.56590000  0.81650000  1
  C  C311  1  0.64020000  0.68350000  0.93410000  1
  C  C312  1  0.64020000  0.81650000  0.43410000  1
  C  C313  1  0.64020000  0.93410000  0.31650000  1
  C  C314  1  0.64190000  0.12240000  0.62240000  1
  C  C315  1  0.64190000  0.37760000  0.12240000  1
  C  C316  1  0.64190000  0.62240000  0.87760000  1
  C  C317  1  0.64190000  0.87760000  0.37760000  1
  C  C318  1  0.64540000  0.07640000  0.82690000  1
  C  C319  1  0.64540000  0.17310000  0.07640000  1
  C  C320  1  0.64540000  0.32690000  0.57640000  1
  C  C321  1  0.64540000  0.42360000  0.32690000  1
  C  C322  1  0.64540000  0.57640000  0.67310000  1
  C  C323  1  0.64540000  0.67310000  0.42360000  1
  C  C324  1  0.64540000  0.82690000  0.92360000  1
  C  C325  1  0.64540000  0.92360000  0.17310000  1
  C  C326  1  0.64600000  0.05420000  0.19010000  1
  C  C327  1  0.64600000  0.19010000  0.94580000  1
  C  C328  1  0.64600000  0.30990000  0.44580000  1
  C  C329  1  0.64600000  0.44580000  0.69010000  1
  C  C330  1  0.64600000  0.55420000  0.30990000  1
  C  C331  1  0.64600000  0.69010000  0.55420000  1
  C  C332  1  0.64600000  0.80990000  0.05420000  1
  C  C333  1  0.64600000  0.94580000  0.80990000  1
  C  C334  1  0.64950000  0.11420000  0.13350000  1
  C  C335  1  0.64950000  0.13350000  0.88580000  1
  C  C336  1  0.64950000  0.36650000  0.38580000  1
  C  C337  1  0.64950000  0.38580000  0.63350000  1
  C  C338  1  0.64950000  0.61420000  0.36650000  1
  C  C339  1  0.64950000  0.63350000  0.61420000  1
  C  C340  1  0.64950000  0.86650000  0.11420000  1
  C  C341  1  0.64950000  0.88580000  0.86650000  1
  C  C342  1  0.67580000  0.08450000  0.64040000  1
  C  C343  1  0.67580000  0.14040000  0.58450000  1
  C  C344  1  0.67580000  0.35960000  0.08450000  1
  C  C345  1  0.67580000  0.41550000  0.14040000  1
  C  C346  1  0.67580000  0.58450000  0.85960000  1
  C  C347  1  0.67580000  0.64040000  0.91550000  1
  C  C348  1  0.67580000  0.85960000  0.41550000  1
  C  C349  1  0.67580000  0.91550000  0.35960000  1
  C  C350  1  0.67960000  0.09750000  0.17160000  1
  C  C351  1  0.67960000  0.17160000  0.90250000  1
  C  C352  1  0.67960000  0.32840000  0.40250000  1
  C  C353  1  0.67960000  0.40250000  0.67160000  1
  C  C354  1  0.67960000  0.59750000  0.32840000  1
  C  C355  1  0.67960000  0.67160000  0.59750000  1
  C  C356  1  0.67960000  0.82840000  0.09750000  1
  C  C357  1  0.67960000  0.90250000  0.82840000  1
  C  C358  1  0.68300000  0.11730000  0.84620000  1
  C  C359  1  0.68300000  0.15380000  0.11730000  1
  C  C360  1  0.68300000  0.34620000  0.61730000  1
  C  C361  1  0.68300000  0.38270000  0.34620000  1
  C  C362  1  0.68300000  0.61730000  0.65380000  1
  C  C363  1  0.68300000  0.65380000  0.38270000  1
  C  C364  1  0.68300000  0.84620000  0.88270000  1
  C  C365  1  0.68300000  0.88270000  0.15380000  1
  C  C366  1  0.72630000  0.01600000  0.51600000  1
  C  C367  1  0.72630000  0.48400000  0.01600000  1
  C  C368  1  0.72630000  0.51600000  0.98400000  1
  C  C369  1  0.72630000  0.98400000  0.48400000  1
  C  C370  1  0.73120000  0.22050000  0.24700000  1
  C  C371  1  0.73120000  0.24700000  0.77950000  1
  C  C372  1  0.73120000  0.25300000  0.27950000  1
  C  C373  1  0.73120000  0.27950000  0.74700000  1
  C  C374  1  0.73120000  0.72050000  0.25300000  1
  C  C375  1  0.73120000  0.74700000  0.72050000  1
  C  C376  1  0.73120000  0.75300000  0.22050000  1
  C  C377  1  0.73120000  0.77950000  0.75300000  1
  C  C378  1  0.74090000  0.06410000  0.61930000  1
  C  C379  1  0.74090000  0.11930000  0.56410000  1
  C  C380  1  0.74090000  0.38070000  0.06410000  1
  C  C381  1  0.74090000  0.43590000  0.11930000  1
  C  C382  1  0.74090000  0.56410000  0.88070000  1
  C  C383  1  0.74090000  0.61930000  0.93590000  1
  C  C384  1  0.74090000  0.88070000  0.43590000  1
  C  C385  1  0.74090000  0.93590000  0.38070000  1
  C  C386  1  0.74330000  0.11960000  0.19450000  1
  C  C387  1  0.74330000  0.19450000  0.88040000  1
  C  C388  1  0.74330000  0.30550000  0.38040000  1
  C  C389  1  0.74330000  0.38040000  0.69450000  1
  C  C390  1  0.74330000  0.61960000  0.30550000  1
  C  C391  1  0.74330000  0.69450000  0.61960000  1
  C  C392  1  0.74330000  0.80550000  0.11960000  1
  C  C393  1  0.74330000  0.88040000  0.80550000  1
  C  C394  1  0.74520000  0.14080000  0.82360000  1
  C  C395  1  0.74520000  0.17640000  0.14080000  1
  C  C396  1  0.74520000  0.32360000  0.64080000  1
  C  C397  1  0.74520000  0.35920000  0.32360000  1
  C  C398  1  0.74520000  0.64080000  0.67640000  1
  C  C399  1  0.74520000  0.67640000  0.35920000  1
  C  C400  1  0.74520000  0.82360000  0.85920000  1
  C  C401  1  0.74520000  0.85920000  0.17640000  1
  C  C402  1  0.77650000  0.15890000  0.17890000  1
  C  C403  1  0.77650000  0.17890000  0.84110000  1
  C  C404  1  0.77650000  0.32110000  0.34110000  1
  C  C405  1  0.77650000  0.34110000  0.67890000  1
  C  C406  1  0.77650000  0.65890000  0.32110000  1
  C  C407  1  0.77650000  0.67890000  0.65890000  1
  C  C408  1  0.77650000  0.82110000  0.15890000  1
  C  C409  1  0.77650000  0.84110000  0.82110000  1
  C  C410  1  0.77710000  0.08210000  0.58210000  1
  C  C411  1  0.77710000  0.41790000  0.08210000  1
  C  C412  1  0.77710000  0.58210000  0.91790000  1
  C  C413  1  0.77710000  0.91790000  0.41790000  1
  C  C414  1  0.81670000  0.02580000  0.52580000  1
  C  C415  1  0.81670000  0.47420000  0.02580000  1
  C  C416  1  0.81670000  0.52580000  0.97420000  1
  C  C417  1  0.81670000  0.97420000  0.47420000  1
  C  C418  1  0.81840000  0.21120000  0.23620000  1
  C  C419  1  0.81840000  0.23620000  0.78880000  1
  C  C420  1  0.81840000  0.26380000  0.28880000  1
  C  C421  1  0.81840000  0.28880000  0.73620000  1
  C  C422  1  0.81840000  0.71120000  0.26380000  1
  C  C423  1  0.81840000  0.73620000  0.71120000  1
  C  C424  1  0.81840000  0.76380000  0.21120000  1
  C  C425  1  0.81840000  0.78880000  0.76380000  1
  C  C426  1  0.84290000  0.05730000  0.55730000  1
  C  C427  1  0.84290000  0.44270000  0.05730000  1
  C  C428  1  0.84290000  0.55730000  0.94270000  1
  C  C429  1  0.84290000  0.94270000  0.44270000  1
  C  C430  1  0.84300000  0.18290000  0.20300000  1
  C  C431  1  0.84300000  0.20300000  0.81710000  1
  C  C432  1  0.84300000  0.29700000  0.31710000  1
  C  C433  1  0.84300000  0.31710000  0.70300000  1
  C  C434  1  0.84300000  0.68290000  0.29700000  1
  C  C435  1  0.84300000  0.70300000  0.68290000  1
  C  C436  1  0.84300000  0.79700000  0.18290000  1
  C  C437  1  0.84300000  0.81710000  0.79700000  1
  C  C438  1  0.92770000  0.17500000  0.19320000  1
  C  C439  1  0.92770000  0.19320000  0.82500000  1
  C  C440  1  0.92770000  0.30680000  0.32500000  1
  C  C441  1  0.92770000  0.32500000  0.69320000  1
  C  C442  1  0.92770000  0.67500000  0.30680000  1
  C  C443  1  0.92770000  0.69320000  0.67500000  1
  C  C444  1  0.92770000  0.80680000  0.17500000  1
  C  C445  1  0.92770000  0.82500000  0.80680000  1
  C  C446  1  0.92860000  0.06610000  0.56610000  1
  C  C447  1  0.92860000  0.43390000  0.06610000  1
  C  C448  1  0.92860000  0.56610000  0.93390000  1
  C  C449  1  0.92860000  0.93390000  0.43390000  1
  C  C450  1  0.95570000  0.14360000  0.16130000  1
  C  C451  1  0.95570000  0.16130000  0.85640000  1
  C  C452  1  0.95570000  0.33870000  0.35640000  1
  C  C453  1  0.95570000  0.35640000  0.66130000  1
  C  C454  1  0.95570000  0.64360000  0.33870000  1
  C  C455  1  0.95570000  0.66130000  0.64360000  1
  C  C456  1  0.95570000  0.83870000  0.14360000  1
  C  C457  1  0.95570000  0.85640000  0.83870000  1
  C  C458  1  0.95670000  0.09800000  0.59800000  1
  C  C459  1  0.95670000  0.40200000  0.09800000  1
  C  C460  1  0.95670000  0.59800000  0.90200000  1
  C  C461  1  0.95670000  0.90200000  0.40200000  1
  N  N462  1  0.00000000  0.04480000  0.54480000  1
  N  N463  1  0.00000000  0.19360000  0.21250000  1
  N  N464  1  0.00000000  0.21250000  0.80640000  1
  N  N465  1  0.00000000  0.28750000  0.30640000  1
  N  N466  1  0.00000000  0.30640000  0.71250000  1
  N  N467  1  0.00000000  0.45520000  0.04480000  1
  N  N468  1  0.00000000  0.54480000  0.95520000  1
  N  N469  1  0.00000000  0.69360000  0.28750000  1
  N  N470  1  0.00000000  0.71250000  0.69360000  1
  N  N471  1  0.00000000  0.78750000  0.19360000  1
  N  N472  1  0.00000000  0.80640000  0.78750000  1
  N  N473  1  0.00000000  0.95520000  0.45520000  1
  N  N474  1  0.12310000  0.00000000  0.50000000  1
  N  N475  1  0.12310000  0.50000000  0.00000000  1
  N  N476  1  0.12590000  0.23900000  0.26100000  1
  N  N477  1  0.12590000  0.26100000  0.76100000  1
  N  N478  1  0.12590000  0.73900000  0.23900000  1
  N  N479  1  0.12590000  0.76100000  0.73900000  1
  N  N480  1  0.87410000  0.23900000  0.26100000  1
  N  N481  1  0.87410000  0.26100000  0.76100000  1
  N  N482  1  0.87410000  0.73900000  0.23900000  1
  N  N483  1  0.87410000  0.76100000  0.73900000  1
  N  N484  1  0.87690000  0.00000000  0.50000000  1
  N  N485  1  0.87690000  0.50000000  0.00000000  1
  O  O486  1  0.32880000  0.06350000  0.79050000  1
  O  O487  1  0.32880000  0.20950000  0.06350000  1
  O  O488  1  0.32880000  0.29050000  0.56350000  1
  O  O489  1  0.32880000  0.43650000  0.29050000  1
  O  O490  1  0.32880000  0.56350000  0.70950000  1
  O  O491  1  0.32880000  0.70950000  0.43650000  1
  O  O492  1  0.32880000  0.79050000  0.93650000  1
  O  O493  1  0.32880000  0.93650000  0.20950000  1
  O  O494  1  0.33290000  0.02790000  0.69770000  1
  O  O495  1  0.33290000  0.19770000  0.52790000  1
  O  O496  1  0.33290000  0.30230000  0.02790000  1
  O  O497  1  0.33290000  0.47210000  0.19770000  1
  O  O498  1  0.33290000  0.52790000  0.80230000  1
  O  O499  1  0.33290000  0.69770000  0.97210000  1
  O  O500  1  0.33290000  0.80230000  0.47210000  1
  O  O501  1  0.33290000  0.97210000  0.30230000  1
  O  O502  1  0.33570000  0.03860000  0.22590000  1
  O  O503  1  0.33570000  0.22590000  0.96140000  1
  O  O504  1  0.33570000  0.27410000  0.46140000  1
  O  O505  1  0.33570000  0.46140000  0.72590000  1
  O  O506  1  0.33570000  0.53860000  0.27410000  1
  O  O507  1  0.33570000  0.72590000  0.53860000  1
  O  O508  1  0.33570000  0.77410000  0.03860000  1
  O  O509  1  0.33570000  0.96140000  0.77410000  1
  O  O510  1  0.40450000  0.03500000  0.16240000  1
  O  O511  1  0.40450000  0.16240000  0.96500000  1
  O  O512  1  0.40450000  0.33760000  0.46500000  1
  O  O513  1  0.40450000  0.46500000  0.66240000  1
  O  O514  1  0.40450000  0.53500000  0.33760000  1
  O  O515  1  0.40450000  0.66240000  0.53500000  1
  O  O516  1  0.40450000  0.83760000  0.03500000  1
  O  O517  1  0.40450000  0.96500000  0.83760000  1
  O  O518  1  0.41020000  0.05830000  0.84850000  1
  O  O519  1  0.41020000  0.15150000  0.05830000  1
  O  O520  1  0.41020000  0.34850000  0.55830000  1
  O  O521  1  0.41020000  0.44170000  0.34850000  1
  O  O522  1  0.41020000  0.55830000  0.65150000  1
  O  O523  1  0.41020000  0.65150000  0.44170000  1
  O  O524  1  0.41020000  0.84850000  0.94170000  1
  O  O525  1  0.41020000  0.94170000  0.15150000  1
  O  O526  1  0.41170000  0.08240000  0.70730000  1
  O  O527  1  0.41170000  0.20730000  0.58240000  1
  O  O528  1  0.41170000  0.29270000  0.08240000  1
  O  O529  1  0.41170000  0.41760000  0.20730000  1
  O  O530  1  0.41170000  0.58240000  0.79270000  1
  O  O531  1  0.41170000  0.70730000  0.91760000  1
  O  O532  1  0.41170000  0.79270000  0.41760000  1
  O  O533  1  0.41170000  0.91760000  0.29270000  1
  O  O534  1  0.50000000  0.02070000  0.77060000  1
  O  O535  1  0.50000000  0.22940000  0.02070000  1
  O  O536  1  0.50000000  0.27060000  0.52070000  1
  O  O537  1  0.50000000  0.47930000  0.27060000  1
  O  O538  1  0.50000000  0.52070000  0.72940000  1
  O  O539  1  0.50000000  0.72940000  0.47930000  1
  O  O540  1  0.50000000  0.77060000  0.97930000  1
  O  O541  1  0.50000000  0.97930000  0.22940000  1
  O  O542  1  0.58830000  0.08240000  0.70730000  1
  O  O543  1  0.58830000  0.20730000  0.58240000  1
  O  O544  1  0.58830000  0.29270000  0.08240000  1
  O  O545  1  0.58830000  0.41760000  0.20730000  1
  O  O546  1  0.58830000  0.58240000  0.79270000  1
  O  O547  1  0.58830000  0.70730000  0.91760000  1
  O  O548  1  0.58830000  0.79270000  0.41760000  1
  O  O549  1  0.58830000  0.91760000  0.29270000  1
  O  O550  1  0.58980000  0.05830000  0.84850000  1
  O  O551  1  0.58980000  0.15150000  0.05830000  1
  O  O552  1  0.58980000  0.34850000  0.55830000  1
  O  O553  1  0.58980000  0.44170000  0.34850000  1
  O  O554  1  0.58980000  0.55830000  0.65150000  1
  O  O555  1  0.58980000  0.65150000  0.44170000  1
  O  O556  1  0.58980000  0.84850000  0.94170000  1
  O  O557  1  0.58980000  0.94170000  0.15150000  1
  O  O558  1  0.59550000  0.03500000  0.16240000  1
  O  O559  1  0.59550000  0.16240000  0.96500000  1
  O  O560  1  0.59550000  0.33760000  0.46500000  1
  O  O561  1  0.59550000  0.46500000  0.66240000  1
  O  O562  1  0.59550000  0.53500000  0.33760000  1
  O  O563  1  0.59550000  0.66240000  0.53500000  1
  O  O564  1  0.59550000  0.83760000  0.03500000  1
  O  O565  1  0.59550000  0.96500000  0.83760000  1
  O  O566  1  0.66430000  0.03860000  0.22590000  1
  O  O567  1  0.66430000  0.22590000  0.96140000  1
  O  O568  1  0.66430000  0.27410000  0.46140000  1
  O  O569  1  0.66430000  0.46140000  0.72590000  1
  O  O570  1  0.66430000  0.53860000  0.27410000  1
  O  O571  1  0.66430000  0.72590000  0.53860000  1
  O  O572  1  0.66430000  0.77410000  0.03860000  1
  O  O573  1  0.66430000  0.96140000  0.77410000  1
  O  O574  1  0.66710000  0.02790000  0.69770000  1
  O  O575  1  0.66710000  0.19770000  0.52790000  1
  O  O576  1  0.66710000  0.30230000  0.02790000  1
  O  O577  1  0.66710000  0.47210000  0.19770000  1
  O  O578  1  0.66710000  0.52790000  0.80230000  1
  O  O579  1  0.66710000  0.69770000  0.97210000  1
  O  O580  1  0.66710000  0.80230000  0.47210000  1
  O  O581  1  0.66710000  0.97210000  0.30230000  1
  O  O582  1  0.67120000  0.06350000  0.79050000  1
  O  O583  1  0.67120000  0.20950000  0.06350000  1
  O  O584  1  0.67120000  0.29050000  0.56350000  1
  O  O585  1  0.67120000  0.43650000  0.29050000  1
  O  O586  1  0.67120000  0.56350000  0.70950000  1
  O  O587  1  0.67120000  0.70950000  0.43650000  1
  O  O588  1  0.67120000  0.79050000  0.93650000  1
  O  O589  1  0.67120000  0.93650000  0.20950000  1
