# generated using pymatgen
data_ZnH20C26NO4
_symmetry_space_group_name_H-M   'P 1'
_cell_length_a   13.17230000
_cell_length_b   13.17230000
_cell_length_c   15.86700000
_cell_angle_alpha   92.68370000
_cell_angle_beta   92.68370000
_cell_angle_gamma   109.09300000
_symmetry_Int_Tables_number   1
_chemical_formula_structural   ZnH20C26NO4
_chemical_formula_sum   'Zn4 H80 C104 N4 O16'
_cell_volume   2593.13525397
_cell_formula_units_Z   4
loop_
 _symmetry_equiv_pos_site_id
 _symmetry_equiv_pos_as_xyz
  1  'x, y, z'
loop_
 _atom_site_type_symbol
 _atom_site_label
 _atom_site_symmetry_multiplicity
 _atom_site_fract_x
 _atom_site_fract_y
 _atom_site_fract_z
 _atom_site_occupancy
  Zn  Zn0  1  0.56280000  0.57242000  0.93922000  1
  Zn  Zn1  1  0.57242000  0.56280000  0.43922000  1
  Zn  Zn2  1  0.42758000  0.43720000  0.56078000  1
  Zn  Zn3  1  0.43720000  0.42758000  0.06078000  1
  H  H4  1  0.75740000  0.99520000  0.56240000  1
  H  H5  1  0.18860000  0.99420000  0.86460000  1
  H  H6  1  0.74260000  0.98580000  0.46240000  1
  H  H7  1  0.38270000  0.98530000  0.83410000  1
  H  H8  1  0.44570000  0.96630000  0.40070000  1
  H  H9  1  0.90860000  0.94920000  0.72070000  1
  H  H10  1  0.19470000  0.91050000  0.93140000  1
  H  H11  1  0.94920000  0.90860000  0.22070000  1
  H  H12  1  0.20360000  0.90000000  0.48870000  1
  H  H13  1  0.12460000  0.89460000  0.64440000  1
  H  H14  1  0.86070000  0.88230000  0.35630000  1
  H  H15  1  0.56130000  0.87950000  0.52880000  1
  H  H16  1  0.10540000  0.87540000  0.85560000  1
  H  H17  1  0.60380000  0.86420000  0.08180000  1
  H  H18  1  0.88230000  0.86070000  0.85630000  1
  H  H19  1  0.32000000  0.85420000  0.73510000  1
  H  H20  1  0.50010000  0.82970000  0.35620000  1
  H  H21  1  0.79450000  0.81850000  0.58910000  1
  H  H22  1  0.00580000  0.81140000  0.63540000  1
  H  H23  1  0.08950000  0.80530000  0.56860000  1
  H  H24  1  0.10000000  0.79640000  0.01130000  1
  H  H25  1  0.81850000  0.79450000  0.08910000  1
  H  H26  1  0.74260000  0.77160000  0.44280000  1
  H  H27  1  0.99520000  0.75740000  0.06240000  1
  H  H28  1  0.65380000  0.74760000  0.66810000  1
  H  H29  1  0.98580000  0.74260000  0.96240000  1
  H  H30  1  0.77160000  0.74260000  0.94280000  1
  H  H31  1  0.33230000  0.70090000  0.66800000  1
  H  H32  1  0.14580000  0.68000000  0.76490000  1
  H  H33  1  0.48210000  0.67810000  0.27110000  1
  H  H34  1  0.29910000  0.66770000  0.83200000  1
  H  H35  1  0.74760000  0.65380000  0.16810000  1
  H  H36  1  0.54930000  0.63870000  0.76050000  1
  H  H37  1  0.01470000  0.61730000  0.66590000  1
  H  H38  1  0.86420000  0.60380000  0.58180000  1
  H  H39  1  0.87950000  0.56130000  0.02880000  1
  H  H40  1  0.03370000  0.55430000  0.09930000  1
  H  H41  1  0.63870000  0.54930000  0.26050000  1
  H  H42  1  0.32190000  0.51790000  0.22890000  1
  H  H43  1  0.82970000  0.50010000  0.85620000  1
  H  H44  1  0.17030000  0.49990000  0.14380000  1
  H  H45  1  0.67810000  0.48210000  0.77110000  1
  H  H46  1  0.36130000  0.45070000  0.73950000  1
  H  H47  1  0.96630000  0.44570000  0.90070000  1
  H  H48  1  0.12050000  0.43870000  0.97120000  1
  H  H49  1  0.13580000  0.39620000  0.41820000  1
  H  H50  1  0.98530000  0.38270000  0.33410000  1
  H  H51  1  0.45070000  0.36130000  0.23950000  1
  H  H52  1  0.25240000  0.34620000  0.83190000  1
  H  H53  1  0.70090000  0.33230000  0.16800000  1
  H  H54  1  0.51790000  0.32190000  0.72890000  1
  H  H55  1  0.85420000  0.32000000  0.23510000  1
  H  H56  1  0.66770000  0.29910000  0.33200000  1
  H  H57  1  0.22840000  0.25740000  0.05720000  1
  H  H58  1  0.01420000  0.25740000  0.03760000  1
  H  H59  1  0.34620000  0.25240000  0.33190000  1
  H  H60  1  0.00480000  0.24260000  0.93760000  1
  H  H61  1  0.25740000  0.22840000  0.55720000  1
  H  H62  1  0.18150000  0.20550000  0.91090000  1
  H  H63  1  0.90000000  0.20360000  0.98870000  1
  H  H64  1  0.91050000  0.19470000  0.43140000  1
  H  H65  1  0.99420000  0.18860000  0.36460000  1
  H  H66  1  0.20550000  0.18150000  0.41090000  1
  H  H67  1  0.49990000  0.17030000  0.64380000  1
  H  H68  1  0.68000000  0.14580000  0.26490000  1
  H  H69  1  0.11770000  0.13930000  0.14370000  1
  H  H70  1  0.39620000  0.13580000  0.91820000  1
  H  H71  1  0.89460000  0.12460000  0.14440000  1
  H  H72  1  0.43870000  0.12050000  0.47120000  1
  H  H73  1  0.13930000  0.11770000  0.64370000  1
  H  H74  1  0.87540000  0.10540000  0.35560000  1
  H  H75  1  0.79640000  0.10000000  0.51130000  1
  H  H76  1  0.05080000  0.09140000  0.77930000  1
  H  H77  1  0.80530000  0.08950000  0.06860000  1
  H  H78  1  0.09140000  0.05080000  0.27930000  1
  H  H79  1  0.55430000  0.03370000  0.59930000  1
  H  H80  1  0.61730000  0.01470000  0.16590000  1
  H  H81  1  0.25740000  0.01420000  0.53760000  1
  H  H82  1  0.81140000  0.00580000  0.13540000  1
  H  H83  1  0.24260000  0.00480000  0.43760000  1
  C  C84  1  0.10110000  0.98870000  0.49360000  1
  C  C85  1  0.21100000  0.97580000  0.48890000  1
  C  C86  1  0.07080000  0.96980000  0.94910000  1
  C  C87  1  0.51010000  0.96630000  0.61480000  1
  C  C88  1  0.44130000  0.96190000  0.67940000  1
  C  C89  1  0.58890000  0.94650000  0.18750000  1
  C  C90  1  0.92970000  0.94150000  0.55660000  1
  C  C91  1  0.55580000  0.93980000  0.26990000  1
  C  C92  1  0.14670000  0.93430000  0.89530000  1
  C  C93  1  0.94150000  0.92970000  0.05660000  1
  C  C94  1  0.03020000  0.92920000  0.55090000  1
  C  C95  1  0.01130000  0.89890000  0.00640000  1
  C  C96  1  0.85300000  0.88980000  0.69490000  1
  C  C97  1  0.85170000  0.87650000  0.61480000  1
  C  C98  1  0.51510000  0.87390000  0.57290000  1
  C  C99  1  0.37220000  0.86000000  0.69550000  1
  C  C100  1  0.58120000  0.85680000  0.13720000  1
  C  C101  1  0.06570000  0.85330000  0.60470000  1
  C  C102  1  0.88980000  0.85300000  0.19490000  1
  C  C103  1  0.87650000  0.85170000  0.11480000  1
  C  C104  1  0.51900000  0.83700000  0.29990000  1
  C  C105  1  0.77730000  0.82250000  0.75170000  1
  C  C106  1  0.81300000  0.81680000  0.83540000  1
  C  C107  1  0.81680000  0.81300000  0.33540000  1
  C  C108  1  0.02420000  0.78900000  0.01110000  1
  C  C109  1  0.82250000  0.77730000  0.25170000  1
  C  C110  1  0.45380000  0.77440000  0.59470000  1
  C  C111  1  0.37890000  0.76850000  0.65500000  1
  C  C112  1  0.54040000  0.75500000  0.16700000  1
  C  C113  1  0.67920000  0.75160000  0.72490000  1
  C  C114  1  0.74610000  0.74650000  0.88720000  1
  C  C115  1  0.50960000  0.74640000  0.24950000  1
  C  C116  1  0.74650000  0.74610000  0.38720000  1
  C  C117  1  0.61740000  0.68580000  0.78080000  1
  C  C118  1  0.75160000  0.67920000  0.22490000  1
  C  C119  1  0.46900000  0.67420000  0.55660000  1
  C  C120  1  0.52950000  0.65810000  0.10960000  1
  C  C121  1  0.14000000  0.62780000  0.80450000  1
  C  C122  1  0.23150000  0.62110000  0.84500000  1
  C  C123  1  0.68580000  0.61740000  0.28080000  1
  C  C124  1  0.94650000  0.58890000  0.68750000  1
  C  C125  1  0.85680000  0.58120000  0.63720000  1
  C  C126  1  0.03810000  0.55870000  0.82060000  1
  C  C127  1  0.93980000  0.55580000  0.76990000  1
  C  C128  1  0.22560000  0.54620000  0.90530000  1
  C  C129  1  0.75500000  0.54040000  0.66700000  1
  C  C130  1  0.32580000  0.53100000  0.94340000  1
  C  C131  1  0.65810000  0.52950000  0.60960000  1
  C  C132  1  0.83700000  0.51900000  0.79990000  1
  C  C133  1  0.87390000  0.51510000  0.07290000  1
  C  C134  1  0.96630000  0.51010000  0.11480000  1
  C  C135  1  0.74640000  0.50960000  0.74950000  1
  C  C136  1  0.25360000  0.49040000  0.25050000  1
  C  C137  1  0.03370000  0.48990000  0.88520000  1
  C  C138  1  0.12610000  0.48490000  0.92710000  1
  C  C139  1  0.16300000  0.48100000  0.20010000  1
  C  C140  1  0.34190000  0.47050000  0.39040000  1
  C  C141  1  0.67420000  0.46900000  0.05660000  1
  C  C142  1  0.24500000  0.45960000  0.33300000  1
  C  C143  1  0.77440000  0.45380000  0.09470000  1
  C  C144  1  0.06020000  0.44420000  0.23010000  1
  C  C145  1  0.96190000  0.44130000  0.17940000  1
  C  C146  1  0.14320000  0.41880000  0.36280000  1
  C  C147  1  0.05350000  0.41110000  0.31250000  1
  C  C148  1  0.31420000  0.38260000  0.71920000  1
  C  C149  1  0.76850000  0.37890000  0.15500000  1
  C  C150  1  0.86000000  0.37220000  0.19550000  1
  C  C151  1  0.47050000  0.34190000  0.89040000  1
  C  C152  1  0.53100000  0.32580000  0.44340000  1
  C  C153  1  0.24840000  0.32080000  0.77510000  1
  C  C154  1  0.38260000  0.31420000  0.21920000  1
  C  C155  1  0.25350000  0.25390000  0.61280000  1
  C  C156  1  0.49040000  0.25360000  0.75050000  1
  C  C157  1  0.25390000  0.25350000  0.11280000  1
  C  C158  1  0.32080000  0.24840000  0.27510000  1
  C  C159  1  0.45960000  0.24500000  0.83300000  1
  C  C160  1  0.62110000  0.23150000  0.34500000  1
  C  C161  1  0.54620000  0.22560000  0.40530000  1
  C  C162  1  0.17750000  0.22270000  0.74830000  1
  C  C163  1  0.97580000  0.21100000  0.98890000  1
  C  C164  1  0.18320000  0.18700000  0.66460000  1
  C  C165  1  0.18700000  0.18320000  0.16460000  1
  C  C166  1  0.22270000  0.17750000  0.24830000  1
  C  C167  1  0.48100000  0.16300000  0.70010000  1
  C  C168  1  0.12350000  0.14830000  0.88520000  1
  C  C169  1  0.11020000  0.14700000  0.80510000  1
  C  C170  1  0.93430000  0.14670000  0.39530000  1
  C  C171  1  0.41880000  0.14320000  0.86280000  1
  C  C172  1  0.62780000  0.14000000  0.30450000  1
  C  C173  1  0.48490000  0.12610000  0.42710000  1
  C  C174  1  0.14830000  0.12350000  0.38520000  1
  C  C175  1  0.14700000  0.11020000  0.30510000  1
  C  C176  1  0.98870000  0.10110000  0.99360000  1
  C  C177  1  0.96980000  0.07080000  0.44910000  1
  C  C178  1  0.05850000  0.07030000  0.94340000  1
  C  C179  1  0.85330000  0.06570000  0.10470000  1
  C  C180  1  0.44420000  0.06020000  0.73010000  1
  C  C181  1  0.07030000  0.05850000  0.44340000  1
  C  C182  1  0.41110000  0.05350000  0.81250000  1
  C  C183  1  0.55870000  0.03810000  0.32060000  1
  C  C184  1  0.48990000  0.03370000  0.38520000  1
  C  C185  1  0.92920000  0.03020000  0.05090000  1
  C  C186  1  0.78900000  0.02420000  0.51110000  1
  C  C187  1  0.89890000  0.01130000  0.50640000  1
  N  N188  1  0.64680000  0.68400000  0.86080000  1
  N  N189  1  0.68400000  0.64680000  0.36080000  1
  N  N190  1  0.31600000  0.35320000  0.63920000  1
  N  N191  1  0.35320000  0.31600000  0.13920000  1
  O  O192  1  0.53074000  0.68426000  0.49720000  1
  O  O193  1  0.57353000  0.67447000  0.04128000  1
  O  O194  1  0.42025000  0.58715000  0.58840000  1
  O  O195  1  0.41285000  0.57975000  0.91160000  1
  O  O196  1  0.67447000  0.57353000  0.54128000  1
  O  O197  1  0.47770000  0.56690000  0.13380000  1
  O  O198  1  0.68426000  0.53074000  0.99720000  1
  O  O199  1  0.43310000  0.52230000  0.36620000  1
  O  O200  1  0.56690000  0.47770000  0.63380000  1
  O  O201  1  0.31574000  0.46926000  0.00280000  1
  O  O202  1  0.52230000  0.43310000  0.86620000  1
  O  O203  1  0.32553000  0.42647000  0.45872000  1
  O  O204  1  0.58715000  0.42025000  0.08840000  1
  O  O205  1  0.57975000  0.41285000  0.41160000  1
  O  O206  1  0.42647000  0.32553000  0.95872000  1
  O  O207  1  0.46926000  0.31574000  0.50280000  1
