# generated using pymatgen
data_CuH18C25(NO2)2
_symmetry_space_group_name_H-M   'P 1'
_cell_length_a   10.84450000
_cell_length_b   13.78940000
_cell_length_c   17.48390000
_cell_angle_alpha   90.00000000
_cell_angle_beta   90.00000000
_cell_angle_gamma   100.42900000
_symmetry_Int_Tables_number   1
_chemical_formula_structural   CuH18C25(NO2)2
_chemical_formula_sum   'Cu4 H72 C100 N8 O16'
_cell_volume   2571.33545735
_cell_formula_units_Z   4
loop_
 _symmetry_equiv_pos_site_id
 _symmetry_equiv_pos_as_xyz
  1  'x, y, z'
loop_
 _atom_site_type_symbol
 _atom_site_label
 _atom_site_symmetry_multiplicity
 _atom_site_fract_x
 _atom_site_fract_y
 _atom_site_fract_z
 _atom_site_occupancy
  Cu  Cu0  1  0.03977000  0.25266000  0.75204000  1
  Cu  Cu1  1  0.46023000  0.74734000  0.25204000  1
  Cu  Cu2  1  0.53977000  0.25266000  0.74796000  1
  Cu  Cu3  1  0.96023000  0.74734000  0.24796000  1
  H  H4  1  0.00250000  0.31390000  0.48170000  1
  H  H5  1  0.01660000  0.19270000  0.00810000  1
  H  H6  1  0.09180000  0.44860000  0.41100000  1
  H  H7  1  0.10160000  0.92980000  0.92050000  1
  H  H8  1  0.11890000  0.93940000  0.30210000  1
  H  H9  1  0.12740000  0.73250000  0.11650000  1
  H  H10  1  0.13460000  0.04480000  0.40340000  1
  H  H11  1  0.14520000  0.13950000  0.49630000  1
  H  H12  1  0.14900000  0.63540000  0.01380000  1
  H  H13  1  0.15190000  0.24030000  0.60030000  1
  H  H14  1  0.16320000  0.54460000  0.92100000  1
  H  H15  1  0.16510000  0.36740000  0.06830000  1
  H  H16  1  0.17170000  0.78620000  0.45910000  1
  H  H17  1  0.17310000  0.90000000  0.57210000  1
  H  H18  1  0.17560000  0.44210000  0.81940000  1
  H  H19  1  0.20920000  0.97440000  0.14110000  1
  H  H20  1  0.21090000  0.26390000  0.94740000  1
  H  H21  1  0.24730000  0.49810000  0.63900000  1
  H  H22  1  0.25270000  0.50190000  0.13900000  1
  H  H23  1  0.28910000  0.73610000  0.44740000  1
  H  H24  1  0.29080000  0.02560000  0.64110000  1
  H  H25  1  0.32440000  0.55790000  0.31940000  1
  H  H26  1  0.32690000  0.10000000  0.07210000  1
  H  H27  1  0.32830000  0.21380000  0.95910000  1
  H  H28  1  0.33490000  0.63260000  0.56830000  1
  H  H29  1  0.33680000  0.45540000  0.42100000  1
  H  H30  1  0.34810000  0.75970000  0.10030000  1
  H  H31  1  0.35100000  0.36460000  0.51380000  1
  H  H32  1  0.35480000  0.86050000  0.99630000  1
  H  H33  1  0.36540000  0.95520000  0.90340000  1
  H  H34  1  0.37260000  0.26750000  0.61650000  1
  H  H35  1  0.38110000  0.06060000  0.80210000  1
  H  H36  1  0.39840000  0.07020000  0.42050000  1
  H  H37  1  0.40820000  0.55140000  0.91100000  1
  H  H38  1  0.48340000  0.80730000  0.50810000  1
  H  H39  1  0.49750000  0.68610000  0.98170000  1
  H  H40  1  0.50250000  0.31390000  0.01830000  1
  H  H41  1  0.51660000  0.19270000  0.49190000  1
  H  H42  1  0.59180000  0.44860000  0.08900000  1
  H  H43  1  0.60160000  0.92980000  0.57950000  1
  H  H44  1  0.61890000  0.93940000  0.19790000  1
  H  H45  1  0.62740000  0.73250000  0.38350000  1
  H  H46  1  0.63460000  0.04480000  0.09660000  1
  H  H47  1  0.64520000  0.13950000  0.00370000  1
  H  H48  1  0.64900000  0.63540000  0.48620000  1
  H  H49  1  0.65190000  0.24030000  0.89970000  1
  H  H50  1  0.66320000  0.54460000  0.57900000  1
  H  H51  1  0.66510000  0.36740000  0.43170000  1
  H  H52  1  0.67170000  0.78620000  0.04090000  1
  H  H53  1  0.67310000  0.90000000  0.92790000  1
  H  H54  1  0.67560000  0.44210000  0.68060000  1
  H  H55  1  0.70920000  0.97440000  0.35890000  1
  H  H56  1  0.71090000  0.26390000  0.55260000  1
  H  H57  1  0.74730000  0.49810000  0.86100000  1
  H  H58  1  0.75270000  0.50190000  0.36100000  1
  H  H59  1  0.78910000  0.73610000  0.05260000  1
  H  H60  1  0.79080000  0.02560000  0.85890000  1
  H  H61  1  0.82440000  0.55790000  0.18060000  1
  H  H62  1  0.82690000  0.10000000  0.42790000  1
  H  H63  1  0.82830000  0.21380000  0.54090000  1
  H  H64  1  0.83490000  0.63260000  0.93170000  1
  H  H65  1  0.83680000  0.45540000  0.07900000  1
  H  H66  1  0.84810000  0.75970000  0.39970000  1
  H  H67  1  0.85100000  0.36460000  0.98620000  1
  H  H68  1  0.85480000  0.86050000  0.50370000  1
  H  H69  1  0.86540000  0.95520000  0.59660000  1
  H  H70  1  0.87260000  0.26750000  0.88350000  1
  H  H71  1  0.88110000  0.06060000  0.69790000  1
  H  H72  1  0.89840000  0.07020000  0.07950000  1
  H  H73  1  0.90820000  0.55140000  0.58900000  1
  H  H74  1  0.98340000  0.80730000  0.99190000  1
  H  H75  1  0.99750000  0.68610000  0.51830000  1
  C  C76  1  0.00400000  0.03369000  0.53349000  1
  C  C77  1  0.00500000  0.43300000  0.41520000  1
  C  C78  1  0.00500000  0.46788000  0.96648000  1
  C  C79  1  0.00910000  0.41910000  0.66357000  1
  C  C80  1  0.01500000  0.92492000  0.92223000  1
  C  C81  1  0.03750000  0.07450000  0.83955000  1
  C  C82  1  0.04100000  0.00829000  0.11776000  1
  C  C83  1  0.04890000  0.64800000  0.54210000  1
  C  C84  1  0.05630000  0.14912000  0.03520000  1
  C  C85  1  0.06470000  0.92346000  0.34323000  1
  C  C86  1  0.06730000  0.50926000  0.62095000  1
  C  C87  1  0.06770000  0.67580000  0.10883000  1
  C  C88  1  0.07470000  0.98724000  0.40413000  1
  C  C89  1  0.08160000  0.61753000  0.04688000  1
  C  C90  1  0.09010000  0.12151000  0.53671000  1
  C  C91  1  0.09390000  0.18169000  0.59969000  1
  C  C92  1  0.10210000  0.48841000  0.91473000  1
  C  C93  1  0.10940000  0.42611000  0.85364000  1
  C  C94  1  0.16940000  0.01854000  0.11472000  1
  C  C95  1  0.17600000  0.67337000  0.53431000  1
  C  C96  1  0.18490000  0.15981000  0.03207000  1
  C  C97  1  0.19580000  0.53536000  0.61443000  1
  C  C98  1  0.23650000  0.75936000  0.48564000  1
  C  C99  1  0.24010000  0.09384000  0.07278000  1
  C  C100  1  0.24810000  0.61610000  0.57182000  1
  C  C101  1  0.25190000  0.38390000  0.07182000  1
  C  C102  1  0.25990000  0.90616000  0.57278000  1
  C  C103  1  0.26350000  0.24064000  0.98564000  1
  C  C104  1  0.30420000  0.46464000  0.11443000  1
  C  C105  1  0.31510000  0.84019000  0.53207000  1
  C  C106  1  0.32400000  0.32663000  0.03431000  1
  C  C107  1  0.33060000  0.98146000  0.61472000  1
  C  C108  1  0.39060000  0.57389000  0.35364000  1
  C  C109  1  0.39790000  0.51159000  0.41473000  1
  C  C110  1  0.40610000  0.81831000  0.09969000  1
  C  C111  1  0.40990000  0.87849000  0.03671000  1
  C  C112  1  0.41840000  0.38247000  0.54688000  1
  C  C113  1  0.42530000  0.01276000  0.90413000  1
  C  C114  1  0.43230000  0.32420000  0.60883000  1
  C  C115  1  0.43270000  0.49074000  0.12095000  1
  C  C116  1  0.43530000  0.07654000  0.84323000  1
  C  C117  1  0.44370000  0.85088000  0.53520000  1
  C  C118  1  0.45110000  0.35200000  0.04210000  1
  C  C119  1  0.45900000  0.99171000  0.61776000  1
  C  C120  1  0.46250000  0.92550000  0.33955000  1
  C  C121  1  0.48500000  0.07508000  0.42223000  1
  C  C122  1  0.49090000  0.58090000  0.16357000  1
  C  C123  1  0.49500000  0.53212000  0.46648000  1
  C  C124  1  0.49500000  0.56700000  0.91520000  1
  C  C125  1  0.49600000  0.96631000  0.03349000  1
  C  C126  1  0.50400000  0.03369000  0.96651000  1
  C  C127  1  0.50500000  0.43300000  0.08480000  1
  C  C128  1  0.50500000  0.46788000  0.53352000  1
  C  C129  1  0.50910000  0.41910000  0.83643000  1
  C  C130  1  0.51500000  0.92492000  0.57777000  1
  C  C131  1  0.53750000  0.07450000  0.66045000  1
  C  C132  1  0.54100000  0.00829000  0.38224000  1
  C  C133  1  0.54890000  0.64800000  0.95790000  1
  C  C134  1  0.55630000  0.14912000  0.46480000  1
  C  C135  1  0.56470000  0.92346000  0.15677000  1
  C  C136  1  0.56730000  0.50926000  0.87905000  1
  C  C137  1  0.56770000  0.67580000  0.39117000  1
  C  C138  1  0.57470000  0.98724000  0.09587000  1
  C  C139  1  0.58160000  0.61753000  0.45312000  1
  C  C140  1  0.59010000  0.12151000  0.96329000  1
  C  C141  1  0.59390000  0.18169000  0.90031000  1
  C  C142  1  0.60210000  0.48841000  0.58527000  1
  C  C143  1  0.60940000  0.42611000  0.64636000  1
  C  C144  1  0.66940000  0.01854000  0.38528000  1
  C  C145  1  0.67600000  0.67337000  0.96569000  1
  C  C146  1  0.68490000  0.15981000  0.46793000  1
  C  C147  1  0.69580000  0.53536000  0.88557000  1
  C  C148  1  0.73650000  0.75936000  0.01436000  1
  C  C149  1  0.74010000  0.09384000  0.42722000  1
  C  C150  1  0.74810000  0.61610000  0.92818000  1
  C  C151  1  0.75190000  0.38390000  0.42818000  1
  C  C152  1  0.75990000  0.90616000  0.92722000  1
  C  C153  1  0.76350000  0.24064000  0.51436000  1
  C  C154  1  0.80420000  0.46464000  0.38557000  1
  C  C155  1  0.81510000  0.84019000  0.96793000  1
  C  C156  1  0.82400000  0.32663000  0.46569000  1
  C  C157  1  0.83060000  0.98146000  0.88528000  1
  C  C158  1  0.89060000  0.57389000  0.14636000  1
  C  C159  1  0.89790000  0.51159000  0.08527000  1
  C  C160  1  0.90610000  0.81831000  0.40031000  1
  C  C161  1  0.90990000  0.87849000  0.46329000  1
  C  C162  1  0.91840000  0.38247000  0.95312000  1
  C  C163  1  0.92530000  0.01276000  0.59587000  1
  C  C164  1  0.93230000  0.32420000  0.89117000  1
  C  C165  1  0.93270000  0.49074000  0.37905000  1
  C  C166  1  0.93530000  0.07654000  0.65677000  1
  C  C167  1  0.94370000  0.85088000  0.96480000  1
  C  C168  1  0.95110000  0.35200000  0.45790000  1
  C  C169  1  0.95900000  0.99171000  0.88224000  1
  C  C170  1  0.96250000  0.92550000  0.16045000  1
  C  C171  1  0.98500000  0.07508000  0.07777000  1
  C  C172  1  0.99090000  0.58090000  0.33643000  1
  C  C173  1  0.99500000  0.53212000  0.03352000  1
  C  C174  1  0.99500000  0.56700000  0.58480000  1
  C  C175  1  0.99600000  0.96631000  0.46651000  1
  N  N176  1  0.01874000  0.16012000  0.65973000  1
  N  N177  1  0.02585000  0.34441000  0.84180000  1
  N  N178  1  0.47415000  0.65559000  0.34180000  1
  N  N179  1  0.48126000  0.83988000  0.15973000  1
  N  N180  1  0.51874000  0.16012000  0.84027000  1
  N  N181  1  0.52585000  0.34441000  0.65820000  1
  N  N182  1  0.97415000  0.65559000  0.15820000  1
  N  N183  1  0.98126000  0.83988000  0.34027000  1
  O  O184  1  0.02030000  0.85770000  0.18183000  1
  O  O185  1  0.08540000  0.36522000  0.68612000  1
  O  O186  1  0.10410000  0.59855000  0.32524000  1
  O  O187  1  0.14832000  0.07305000  0.82721000  1
  O  O188  1  0.35168000  0.92695000  0.32721000  1
  O  O189  1  0.39590000  0.40145000  0.82524000  1
  O  O190  1  0.41460000  0.63478000  0.18612000  1
  O  O191  1  0.47970000  0.14230000  0.68183000  1
  O  O192  1  0.52030000  0.85770000  0.31817000  1
  O  O193  1  0.58540000  0.36522000  0.81388000  1
  O  O194  1  0.60410000  0.59855000  0.17476000  1
  O  O195  1  0.64832000  0.07305000  0.67279000  1
  O  O196  1  0.85168000  0.92695000  0.17279000  1
  O  O197  1  0.89590000  0.40145000  0.67476000  1
  O  O198  1  0.91460000  0.63478000  0.31388000  1
  O  O199  1  0.97970000  0.14230000  0.81817000  1
