# generated using pymatgen
data_BaH4C4O5
_symmetry_space_group_name_H-M   'P 1'
_cell_length_a   6.41900000
_cell_length_b   7.93610000
_cell_length_c   8.91100000
_cell_angle_alpha   103.75700000
_cell_angle_beta   104.13700000
_cell_angle_gamma   106.94500000
_symmetry_Int_Tables_number   1
_chemical_formula_structural   BaH4C4O5
_chemical_formula_sum   'Ba2 H8 C8 O10'
_cell_volume   397.03601057
_cell_formula_units_Z   2
loop_
 _symmetry_equiv_pos_site_id
 _symmetry_equiv_pos_as_xyz
  1  'x, y, z'
loop_
 _atom_site_type_symbol
 _atom_site_label
 _atom_site_symmetry_multiplicity
 _atom_site_fract_x
 _atom_site_fract_y
 _atom_site_fract_z
 _atom_site_occupancy
  Ba  Ba0  1  0.15118000  0.27066000  0.42750000  1
  Ba  Ba1  1  0.84882000  0.72934000  0.57250000  1
  H  H2  1  0.17970000  0.71150000  0.97730000  1
  H  H3  1  0.20780000  0.38830000  0.05290000  1
  H  H4  1  0.26100000  0.90800000  0.43500000  1
  H  H5  1  0.34400000  0.01500000  0.58200000  1
  H  H6  1  0.65600000  0.98500000  0.41800000  1
  H  H7  1  0.73900000  0.09200000  0.56500000  1
  H  H8  1  0.79220000  0.61170000  0.94710000  1
  H  H9  1  0.82030000  0.28850000  0.02270000  1
  C  C10  1  0.10850000  0.57200000  0.93770000  1
  C  C11  1  0.15800000  0.49640000  0.08200000  1
  C  C12  1  0.16310000  0.48950000  0.78730000  1
  C  C13  1  0.31880000  0.63930000  0.24690000  1
  C  C14  1  0.68120000  0.36070000  0.75310000  1
  C  C15  1  0.83690000  0.51050000  0.21270000  1
  C  C16  1  0.84200000  0.50360000  0.91800000  1
  C  C17  1  0.89150000  0.42800000  0.06230000  1
  O  O18  1  0.16470000  0.57820000  0.68498000  1
  O  O19  1  0.19800000  0.33990000  0.76488000  1
  O  O20  1  0.21770000  0.95890000  0.50826000  1
  O  O21  1  0.37210000  0.81020000  0.26313000  1
  O  O22  1  0.38300000  0.57930000  0.36247000  1
  O  O23  1  0.61700000  0.42070000  0.63753000  1
  O  O24  1  0.62790000  0.18980000  0.73687000  1
  O  O25  1  0.78230000  0.04110000  0.49174000  1
  O  O26  1  0.80200000  0.66010000  0.23512000  1
  O  O27  1  0.83530000  0.42180000  0.31502000  1
