# generated using pymatgen
data_BaHC3SO4
_symmetry_space_group_name_H-M   'P 1'
_cell_length_a   5.87670000
_cell_length_b   7.50120000
_cell_length_c   16.47600000
_cell_angle_alpha   90.00000000
_cell_angle_beta   90.00000000
_cell_angle_gamma   94.47000000
_symmetry_Int_Tables_number   1
_chemical_formula_structural   BaHC3SO4
_chemical_formula_sum   'Ba4 H4 C12 S4 O16'
_cell_volume   724.09080581
_cell_formula_units_Z   4
loop_
 _symmetry_equiv_pos_site_id
 _symmetry_equiv_pos_as_xyz
  1  'x, y, z'
loop_
 _atom_site_type_symbol
 _atom_site_label
 _atom_site_symmetry_multiplicity
 _atom_site_fract_x
 _atom_site_fract_y
 _atom_site_fract_z
 _atom_site_occupancy
  Ba  Ba0  1  0.18036000  0.28696000  0.03280000  1
  Ba  Ba1  1  0.18036000  0.28696000  0.46720000  1
  Ba  Ba2  1  0.81964000  0.71304000  0.53280000  1
  Ba  Ba3  1  0.81964000  0.71304000  0.96720000  1
  H  H4  1  0.20810000  0.52620000  0.75000000  1
  H  H5  1  0.45670000  0.84750000  0.25000000  1
  H  H6  1  0.54330000  0.15250000  0.75000000  1
  H  H7  1  0.79190000  0.47380000  0.25000000  1
  C  C8  1  0.01930000  0.60230000  0.17510000  1
  C  C9  1  0.01930000  0.60230000  0.32490000  1
  C  C10  1  0.07470000  0.45080000  0.75000000  1
  C  C11  1  0.22610000  0.71710000  0.17684000  1
  C  C12  1  0.22610000  0.71710000  0.32316000  1
  C  C13  1  0.32340000  0.77210000  0.25000000  1
  C  C14  1  0.67660000  0.22790000  0.75000000  1
  C  C15  1  0.77390000  0.28290000  0.67684000  1
  C  C16  1  0.77390000  0.28290000  0.82316000  1
  C  C17  1  0.92530000  0.54920000  0.25000000  1
  C  C18  1  0.98070000  0.39770000  0.67510000  1
  C  C19  1  0.98070000  0.39770000  0.82490000  1
  S  S20  1  0.33876000  0.79912000  0.08511000  1
  S  S21  1  0.33876000  0.79912000  0.41489000  1
  S  S22  1  0.66124000  0.20088000  0.58511000  1
  S  S23  1  0.66124000  0.20088000  0.91489000  1
  O  O24  1  0.07420000  0.45650000  0.60625000  1
  O  O25  1  0.07420000  0.45650000  0.89375000  1
  O  O26  1  0.16950000  0.91170000  0.05064000  1
  O  O27  1  0.16950000  0.91170000  0.44936000  1
  O  O28  1  0.36650000  0.64670000  0.03107000  1
  O  O29  1  0.36650000  0.64670000  0.46893000  1
  O  O30  1  0.44270000  0.10170000  0.60064000  1
  O  O31  1  0.44270000  0.10170000  0.89936000  1
  O  O32  1  0.55730000  0.89830000  0.10064000  1
  O  O33  1  0.55730000  0.89830000  0.39936000  1
  O  O34  1  0.63350000  0.35330000  0.53107000  1
  O  O35  1  0.63350000  0.35330000  0.96893000  1
  O  O36  1  0.83050000  0.08830000  0.55064000  1
  O  O37  1  0.83050000  0.08830000  0.94936000  1
  O  O38  1  0.92580000  0.54350000  0.10625000  1
  O  O39  1  0.92580000  0.54350000  0.39375000  1
