# generated using pymatgen
data_ErH3(C3O2)3
_symmetry_space_group_name_H-M   'P 1'
_cell_length_a   10.27000000
_cell_length_b   10.27000000
_cell_length_c   14.46000000
_cell_angle_alpha   90.00000000
_cell_angle_beta   90.00000000
_cell_angle_gamma   90.00000000
_symmetry_Int_Tables_number   1
_chemical_formula_structural   ErH3(C3O2)3
_chemical_formula_sum   'Er4 H12 C36 O24'
_cell_volume   1525.13813400
_cell_formula_units_Z   4
loop_
 _symmetry_equiv_pos_site_id
 _symmetry_equiv_pos_as_xyz
  1  'x, y, z'
loop_
 _atom_site_type_symbol
 _atom_site_label
 _atom_site_symmetry_multiplicity
 _atom_site_fract_x
 _atom_site_fract_y
 _atom_site_fract_z
 _atom_site_occupancy
  Er  Er0  1  0.35133000  0.35133000  0.62500000  1
  Er  Er1  1  0.35133000  0.64867000  0.87500000  1
  Er  Er2  1  0.64867000  0.35133000  0.37500000  1
  Er  Er3  1  0.64867000  0.64867000  0.12500000  1
  H  H4  1  0.05920000  0.42490000  0.37840000  1
  H  H5  1  0.05920000  0.57510000  0.12160000  1
  H  H6  1  0.39920000  0.50000000  0.25000000  1
  H  H7  1  0.42490000  0.05920000  0.87160000  1
  H  H8  1  0.42490000  0.94080000  0.62840000  1
  H  H9  1  0.50000000  0.39920000  0.00000000  1
  H  H10  1  0.50000000  0.60080000  0.50000000  1
  H  H11  1  0.57510000  0.05920000  0.12840000  1
  H  H12  1  0.57510000  0.94080000  0.37160000  1
  H  H13  1  0.60080000  0.50000000  0.75000000  1
  H  H14  1  0.94080000  0.42490000  0.62160000  1
  H  H15  1  0.94080000  0.57510000  0.87840000  1
  C  C16  1  0.03740000  0.50000000  0.25000000  1
  C  C17  1  0.10460000  0.45540000  0.32720000  1
  C  C18  1  0.10460000  0.54460000  0.17280000  1
  C  C19  1  0.11030000  0.50000000  0.75000000  1
  C  C20  1  0.24000000  0.45680000  0.32730000  1
  C  C21  1  0.24000000  0.54320000  0.17270000  1
  C  C22  1  0.30870000  0.50000000  0.25000000  1
  C  C23  1  0.31660000  0.41220000  0.41070000  1
  C  C24  1  0.31660000  0.58780000  0.08930000  1
  C  C25  1  0.41220000  0.31660000  0.83930000  1
  C  C26  1  0.41220000  0.68340000  0.66070000  1
  C  C27  1  0.45540000  0.10460000  0.92280000  1
  C  C28  1  0.45540000  0.89540000  0.57720000  1
  C  C29  1  0.45680000  0.24000000  0.92270000  1
  C  C30  1  0.45680000  0.76000000  0.57730000  1
  C  C31  1  0.50000000  0.03740000  0.00000000  1
  C  C32  1  0.50000000  0.11030000  0.50000000  1
  C  C33  1  0.50000000  0.30870000  0.00000000  1
  C  C34  1  0.50000000  0.69130000  0.50000000  1
  C  C35  1  0.50000000  0.88970000  0.00000000  1
  C  C36  1  0.50000000  0.96260000  0.50000000  1
  C  C37  1  0.54320000  0.24000000  0.07730000  1
  C  C38  1  0.54320000  0.76000000  0.42270000  1
  C  C39  1  0.54460000  0.10460000  0.07720000  1
  C  C40  1  0.54460000  0.89540000  0.42280000  1
  C  C41  1  0.58780000  0.31660000  0.16070000  1
  C  C42  1  0.58780000  0.68340000  0.33930000  1
  C  C43  1  0.68340000  0.41220000  0.58930000  1
  C  C44  1  0.68340000  0.58780000  0.91070000  1
  C  C45  1  0.69130000  0.50000000  0.75000000  1
  C  C46  1  0.76000000  0.45680000  0.67270000  1
  C  C47  1  0.76000000  0.54320000  0.82730000  1
  C  C48  1  0.88970000  0.50000000  0.25000000  1
  C  C49  1  0.89540000  0.45540000  0.67280000  1
  C  C50  1  0.89540000  0.54460000  0.82720000  1
  C  C51  1  0.96260000  0.50000000  0.75000000  1
  O  O52  1  0.16390000  0.42770000  0.69200000  1
  O  O53  1  0.16390000  0.57230000  0.80800000  1
  O  O54  1  0.25830000  0.40410000  0.48670000  1
  O  O55  1  0.25830000  0.59590000  0.01330000  1
  O  O56  1  0.38860000  0.43310000  0.84990000  1
  O  O57  1  0.38860000  0.56690000  0.65010000  1
  O  O58  1  0.40410000  0.25830000  0.76330000  1
  O  O59  1  0.40410000  0.74170000  0.73670000  1
  O  O60  1  0.42770000  0.16390000  0.55800000  1
  O  O61  1  0.42770000  0.83610000  0.94200000  1
  O  O62  1  0.43310000  0.38860000  0.40010000  1
  O  O63  1  0.43310000  0.61140000  0.09990000  1
  O  O64  1  0.56690000  0.38860000  0.59990000  1
  O  O65  1  0.56690000  0.61140000  0.90010000  1
  O  O66  1  0.57230000  0.16390000  0.44200000  1
  O  O67  1  0.57230000  0.83610000  0.05800000  1
  O  O68  1  0.59590000  0.25830000  0.23670000  1
  O  O69  1  0.59590000  0.74170000  0.26330000  1
  O  O70  1  0.61140000  0.43310000  0.15010000  1
  O  O71  1  0.61140000  0.56690000  0.34990000  1
  O  O72  1  0.74170000  0.40410000  0.51330000  1
  O  O73  1  0.74170000  0.59590000  0.98670000  1
  O  O74  1  0.83610000  0.42770000  0.30800000  1
  O  O75  1  0.83610000  0.57230000  0.19200000  1
