# generated using pymatgen
data_CdH14C20(NO)4
_symmetry_space_group_name_H-M   'P 1'
_cell_length_a   10.14590000
_cell_length_b   10.14590000
_cell_length_c   23.86340000
_cell_angle_alpha   90.00000000
_cell_angle_beta   90.00000000
_cell_angle_gamma   90.00000000
_symmetry_Int_Tables_number   1
_chemical_formula_structural   CdH14C20(NO)4
_chemical_formula_sum   'Cd4 H56 C80 N16 O16'
_cell_volume   2456.48137686
_cell_formula_units_Z   4
loop_
 _symmetry_equiv_pos_site_id
 _symmetry_equiv_pos_as_xyz
  1  'x, y, z'
loop_
 _atom_site_type_symbol
 _atom_site_label
 _atom_site_symmetry_multiplicity
 _atom_site_fract_x
 _atom_site_fract_y
 _atom_site_fract_z
 _atom_site_occupancy
  Cd  Cd0  1  0.00000000  0.00000000  0.00000000  1
  Cd  Cd1  1  0.00000000  0.50000000  0.75000000  1
  Cd  Cd2  1  0.50000000  0.00000000  0.25000000  1
  Cd  Cd3  1  0.50000000  0.50000000  0.50000000  1
  H  H4  1  0.01760000  0.34340000  0.87370000  1
  H  H5  1  0.02240000  0.84400000  0.32750000  1
  H  H6  1  0.04790000  0.61910000  0.49460000  1
  H  H7  1  0.09670000  0.80930000  0.70800000  1
  H  H8  1  0.11910000  0.54790000  0.00540000  1
  H  H9  1  0.15110000  0.29590000  0.46400000  1
  H  H10  1  0.15600000  0.02240000  0.67250000  1
  H  H11  1  0.15660000  0.48240000  0.62630000  1
  H  H12  1  0.15810000  0.73690000  0.92900000  1
  H  H13  1  0.19070000  0.09670000  0.29200000  1
  H  H14  1  0.20410000  0.34890000  0.03600000  1
  H  H15  1  0.22400000  0.77420000  0.36030000  1
  H  H16  1  0.22580000  0.22400000  0.63970000  1
  H  H17  1  0.23690000  0.65810000  0.57100000  1
  H  H18  1  0.26310000  0.15810000  0.07100000  1
  H  H19  1  0.27420000  0.72400000  0.13970000  1
  H  H20  1  0.27600000  0.27420000  0.86030000  1
  H  H21  1  0.29590000  0.84890000  0.53600000  1
  H  H22  1  0.30930000  0.59670000  0.79200000  1
  H  H23  1  0.34190000  0.23690000  0.42900000  1
  H  H24  1  0.34340000  0.98240000  0.12630000  1
  H  H25  1  0.34400000  0.52240000  0.17250000  1
  H  H26  1  0.34890000  0.79590000  0.96400000  1
  H  H27  1  0.38090000  0.04790000  0.50540000  1
  H  H28  1  0.40330000  0.30930000  0.20800000  1
  H  H29  1  0.45210000  0.11910000  0.99460000  1
  H  H30  1  0.47760000  0.34400000  0.82750000  1
  H  H31  1  0.48240000  0.84340000  0.37370000  1
  H  H32  1  0.51760000  0.15660000  0.37370000  1
  H  H33  1  0.52240000  0.65600000  0.82750000  1
  H  H34  1  0.54790000  0.88090000  0.99460000  1
  H  H35  1  0.59670000  0.69070000  0.20800000  1
  H  H36  1  0.61910000  0.95210000  0.50540000  1
  H  H37  1  0.65110000  0.20410000  0.96400000  1
  H  H38  1  0.65600000  0.47760000  0.17250000  1
  H  H39  1  0.65660000  0.01760000  0.12630000  1
  H  H40  1  0.65810000  0.76310000  0.42900000  1
  H  H41  1  0.69070000  0.40330000  0.79200000  1
  H  H42  1  0.70410000  0.15110000  0.53600000  1
  H  H43  1  0.72400000  0.72580000  0.86030000  1
  H  H44  1  0.72580000  0.27600000  0.13970000  1
  H  H45  1  0.73690000  0.84190000  0.07100000  1
  H  H46  1  0.76310000  0.34190000  0.57100000  1
  H  H47  1  0.77420000  0.77600000  0.63970000  1
  H  H48  1  0.77600000  0.22580000  0.36030000  1
  H  H49  1  0.79590000  0.65110000  0.03600000  1
  H  H50  1  0.80930000  0.90330000  0.29200000  1
  H  H51  1  0.84190000  0.26310000  0.92900000  1
  H  H52  1  0.84340000  0.51760000  0.62630000  1
  H  H53  1  0.84400000  0.97760000  0.67250000  1
  H  H54  1  0.84890000  0.70410000  0.46400000  1
  H  H55  1  0.88090000  0.45210000  0.00540000  1
  H  H56  1  0.90330000  0.19070000  0.70800000  1
  H  H57  1  0.95210000  0.38090000  0.49460000  1
  H  H58  1  0.97760000  0.15600000  0.32750000  1
  H  H59  1  0.98240000  0.65660000  0.87370000  1
  C  C60  1  0.02750000  0.79960000  0.36150000  1
  C  C61  1  0.04410000  0.66560000  0.46100000  1
  C  C62  1  0.07120000  0.65450000  0.86421000  1
  C  C63  1  0.07600000  0.28530000  0.44210000  1
  C  C64  1  0.08530000  0.22200000  0.39202000  1
  C  C65  1  0.12170000  0.75060000  0.68001000  1
  C  C66  1  0.12670000  0.78480000  0.05084000  1
  C  C67  1  0.14820000  0.75600000  0.38080000  1
  C  C68  1  0.15450000  0.57120000  0.63579000  1
  C  C69  1  0.15760000  0.68560000  0.43026000  1
  C  C70  1  0.16560000  0.54410000  0.03900000  1
  C  C71  1  0.17980000  0.78590000  0.62991000  1
  C  C72  1  0.18560000  0.65760000  0.06974000  1
  C  C73  1  0.20040000  0.02750000  0.63850000  1
  C  C74  1  0.21410000  0.17980000  0.37009000  1
  C  C75  1  0.21470000  0.42400000  0.05790000  1
  C  C76  1  0.21520000  0.12670000  0.94916000  1
  C  C77  1  0.22200000  0.91470000  0.60798000  1
  C  C78  1  0.24400000  0.14820000  0.61920000  1
  C  C79  1  0.24940000  0.12170000  0.31999000  1
  C  C80  1  0.25060000  0.62170000  0.81999000  1
  C  C81  1  0.25600000  0.64820000  0.11920000  1
  C  C82  1  0.27800000  0.41470000  0.10798000  1
  C  C83  1  0.28480000  0.62670000  0.44916000  1
  C  C84  1  0.28530000  0.92400000  0.55790000  1
  C  C85  1  0.28590000  0.67980000  0.87009000  1
  C  C86  1  0.29960000  0.52750000  0.13850000  1
  C  C87  1  0.31440000  0.15760000  0.56974000  1
  C  C88  1  0.32020000  0.28590000  0.12991000  1
  C  C89  1  0.33440000  0.04410000  0.53900000  1
  C  C90  1  0.34240000  0.18560000  0.93026000  1
  C  C91  1  0.34550000  0.07120000  0.13579000  1
  C  C92  1  0.35180000  0.25600000  0.88080000  1
  C  C93  1  0.37330000  0.28480000  0.55084000  1
  C  C94  1  0.37830000  0.25060000  0.18001000  1
  C  C95  1  0.41470000  0.72200000  0.89202000  1
  C  C96  1  0.42400000  0.78530000  0.94210000  1
  C  C97  1  0.42880000  0.15450000  0.36421000  1
  C  C98  1  0.45590000  0.16560000  0.96100000  1
  C  C99  1  0.47250000  0.29960000  0.86150000  1
  C  C100  1  0.52750000  0.70040000  0.86150000  1
  C  C101  1  0.54410000  0.83440000  0.96100000  1
  C  C102  1  0.57120000  0.84550000  0.36421000  1
  C  C103  1  0.57600000  0.21470000  0.94210000  1
  C  C104  1  0.58530000  0.27800000  0.89202000  1
  C  C105  1  0.62170000  0.74940000  0.18001000  1
  C  C106  1  0.62670000  0.71520000  0.55084000  1
  C  C107  1  0.64820000  0.74400000  0.88080000  1
  C  C108  1  0.65450000  0.92880000  0.13579000  1
  C  C109  1  0.65760000  0.81440000  0.93026000  1
  C  C110  1  0.66560000  0.95590000  0.53900000  1
  C  C111  1  0.67980000  0.71410000  0.12991000  1
  C  C112  1  0.68560000  0.84240000  0.56974000  1
  C  C113  1  0.70040000  0.47250000  0.13850000  1
  C  C114  1  0.71410000  0.32020000  0.87009000  1
  C  C115  1  0.71470000  0.07600000  0.55790000  1
  C  C116  1  0.71520000  0.37330000  0.44916000  1
  C  C117  1  0.72200000  0.58530000  0.10798000  1
  C  C118  1  0.74400000  0.35180000  0.11920000  1
  C  C119  1  0.74940000  0.37830000  0.81999000  1
  C  C120  1  0.75060000  0.87830000  0.31999000  1
  C  C121  1  0.75600000  0.85180000  0.61920000  1
  C  C122  1  0.77800000  0.08530000  0.60798000  1
  C  C123  1  0.78480000  0.87330000  0.94916000  1
  C  C124  1  0.78530000  0.57600000  0.05790000  1
  C  C125  1  0.78590000  0.82020000  0.37009000  1
  C  C126  1  0.79960000  0.97250000  0.63850000  1
  C  C127  1  0.81440000  0.34240000  0.06974000  1
  C  C128  1  0.82020000  0.21410000  0.62991000  1
  C  C129  1  0.83440000  0.45590000  0.03900000  1
  C  C130  1  0.84240000  0.31440000  0.43026000  1
  C  C131  1  0.84550000  0.42880000  0.63579000  1
  C  C132  1  0.85180000  0.24400000  0.38080000  1
  C  C133  1  0.87330000  0.21520000  0.05084000  1
  C  C134  1  0.87830000  0.24940000  0.68001000  1
  C  C135  1  0.91470000  0.77800000  0.39202000  1
  C  C136  1  0.92400000  0.71470000  0.44210000  1
  C  C137  1  0.92880000  0.34550000  0.86421000  1
  C  C138  1  0.95590000  0.33440000  0.46100000  1
  C  C139  1  0.97250000  0.20040000  0.36150000  1
  N  N140  1  0.10630000  0.61690000  0.68263000  1
  N  N141  1  0.11690000  0.60630000  0.81737000  1
  N  N142  1  0.16800000  0.70050000  0.89676000  1
  N  N143  1  0.20050000  0.66800000  0.60324000  1
  N  N144  1  0.29950000  0.16800000  0.10324000  1
  N  N145  1  0.33200000  0.20050000  0.39676000  1
  N  N146  1  0.38310000  0.10630000  0.31737000  1
  N  N147  1  0.39370000  0.11690000  0.18263000  1
  N  N148  1  0.60630000  0.88310000  0.18263000  1
  N  N149  1  0.61690000  0.89370000  0.31737000  1
  N  N150  1  0.66800000  0.79950000  0.39676000  1
  N  N151  1  0.70050000  0.83200000  0.10324000  1
  N  N152  1  0.79950000  0.33200000  0.60324000  1
  N  N153  1  0.83200000  0.29950000  0.89676000  1
  N  N154  1  0.88310000  0.39370000  0.81737000  1
  N  N155  1  0.89370000  0.38310000  0.68263000  1
  O  O156  1  0.09920000  0.79760000  0.99980000  1
  O  O157  1  0.10380000  0.87440000  0.08512000  1
  O  O158  1  0.12560000  0.10380000  0.91488000  1
  O  O159  1  0.20240000  0.09920000  0.00020000  1
  O  O160  1  0.29760000  0.59920000  0.50020000  1
  O  O161  1  0.37440000  0.60380000  0.41488000  1
  O  O162  1  0.39620000  0.37440000  0.58512000  1
  O  O163  1  0.40080000  0.29760000  0.49980000  1
  O  O164  1  0.59920000  0.70240000  0.49980000  1
  O  O165  1  0.60380000  0.62560000  0.58512000  1
  O  O166  1  0.62560000  0.39620000  0.41488000  1
  O  O167  1  0.70240000  0.40080000  0.50020000  1
  O  O168  1  0.79760000  0.90080000  0.00020000  1
  O  O169  1  0.87440000  0.89620000  0.91488000  1
  O  O170  1  0.89620000  0.12560000  0.08512000  1
  O  O171  1  0.90080000  0.20240000  0.99980000  1
