# generated using pymatgen
data_VH6(C3O)6
_symmetry_space_group_name_H-M   'P 1'
_cell_length_a   17.76580000
_cell_length_b   17.76580000
_cell_length_c   17.76580000
_cell_angle_alpha   90.00000000
_cell_angle_beta   90.00000000
_cell_angle_gamma   90.00000000
_symmetry_Int_Tables_number   1
_chemical_formula_structural   VH6(C3O)6
_chemical_formula_sum   'V4 H24 C72 O24'
_cell_volume   5607.30663477
_cell_formula_units_Z   4
loop_
 _symmetry_equiv_pos_site_id
 _symmetry_equiv_pos_as_xyz
  1  'x, y, z'
loop_
 _atom_site_type_symbol
 _atom_site_label
 _atom_site_symmetry_multiplicity
 _atom_site_fract_x
 _atom_site_fract_y
 _atom_site_fract_z
 _atom_site_occupancy
  V  V0  1  0.12500000  0.12500000  0.12500000  1
  V  V1  1  0.37500000  0.87500000  0.62500000  1
  V  V2  1  0.62500000  0.37500000  0.87500000  1
  V  V3  1  0.87500000  0.62500000  0.37500000  1
  H  H4  1  0.00618000  0.91892000  0.21858000  1
  H  H5  1  0.03142000  0.33108000  0.24382000  1
  H  H6  1  0.08108000  0.71858000  0.49382000  1
  H  H7  1  0.16892000  0.75618000  0.53142000  1
  H  H8  1  0.21858000  0.00618000  0.91892000  1
  H  H9  1  0.24382000  0.03142000  0.33108000  1
  H  H10  1  0.25618000  0.96858000  0.83108000  1
  H  H11  1  0.28142000  0.99382000  0.41892000  1
  H  H12  1  0.33108000  0.24382000  0.03142000  1
  H  H13  1  0.41892000  0.28142000  0.99382000  1
  H  H14  1  0.46858000  0.66892000  0.74382000  1
  H  H15  1  0.49382000  0.08108000  0.71858000  1
  H  H16  1  0.50618000  0.58108000  0.78142000  1
  H  H17  1  0.53142000  0.16892000  0.75618000  1
  H  H18  1  0.58108000  0.78142000  0.50618000  1
  H  H19  1  0.66892000  0.74382000  0.46858000  1
  H  H20  1  0.71858000  0.49382000  0.08108000  1
  H  H21  1  0.74382000  0.46858000  0.66892000  1
  H  H22  1  0.75618000  0.53142000  0.16892000  1
  H  H23  1  0.78142000  0.50618000  0.58108000  1
  H  H24  1  0.83108000  0.25618000  0.96858000  1
  H  H25  1  0.91892000  0.21858000  0.00618000  1
  H  H26  1  0.96858000  0.83108000  0.25618000  1
  H  H27  1  0.99382000  0.41892000  0.28142000  1
  C  C28  1  0.00501000  0.30724000  0.19060000  1
  C  C29  1  0.00577000  0.21457000  0.09294000  1
  C  C30  1  0.03543000  0.24423000  0.15706000  1
  C  C31  1  0.05724000  0.74499000  0.44060000  1
  C  C32  1  0.05779000  0.84120000  0.34092000  1
  C  C33  1  0.05940000  0.94276000  0.24499000  1
  C  C34  1  0.09092000  0.90880000  0.30779000  1
  C  C35  1  0.09120000  0.80779000  0.40908000  1
  C  C36  1  0.09294000  0.00577000  0.21457000  1
  C  C37  1  0.15706000  0.03543000  0.24423000  1
  C  C38  1  0.15880000  0.84092000  0.44221000  1
  C  C39  1  0.15908000  0.94221000  0.34120000  1
  C  C40  1  0.19060000  0.00501000  0.30724000  1
  C  C41  1  0.19221000  0.90908000  0.40880000  1
  C  C42  1  0.19276000  0.80940000  0.50501000  1
  C  C43  1  0.21457000  0.09294000  0.00577000  1
  C  C44  1  0.24423000  0.15706000  0.03543000  1
  C  C45  1  0.24499000  0.05940000  0.94276000  1
  C  C46  1  0.25501000  0.94060000  0.44276000  1
  C  C47  1  0.25577000  0.84294000  0.53543000  1
  C  C48  1  0.28543000  0.90706000  0.50577000  1
  C  C49  1  0.30724000  0.19060000  0.00501000  1
  C  C50  1  0.30779000  0.09092000  0.90880000  1
  C  C51  1  0.30940000  0.99499000  0.80724000  1
  C  C52  1  0.34092000  0.05779000  0.84120000  1
  C  C53  1  0.34120000  0.15908000  0.94221000  1
  C  C54  1  0.34294000  0.96457000  0.74423000  1
  C  C55  1  0.40706000  0.99423000  0.71457000  1
  C  C56  1  0.40880000  0.19221000  0.90908000  1
  C  C57  1  0.40908000  0.09120000  0.80779000  1
  C  C58  1  0.44060000  0.05724000  0.74499000  1
  C  C59  1  0.44221000  0.15880000  0.84092000  1
  C  C60  1  0.44276000  0.25501000  0.94060000  1
  C  C61  1  0.46457000  0.75577000  0.65706000  1
  C  C62  1  0.49423000  0.78543000  0.59294000  1
  C  C63  1  0.49499000  0.69276000  0.69060000  1
  C  C64  1  0.50501000  0.19276000  0.80940000  1
  C  C65  1  0.50577000  0.28543000  0.90706000  1
  C  C66  1  0.53543000  0.25577000  0.84294000  1
  C  C67  1  0.55724000  0.75501000  0.55940000  1
  C  C68  1  0.55779000  0.65880000  0.65908000  1
  C  C69  1  0.55940000  0.55724000  0.75501000  1
  C  C70  1  0.59092000  0.59120000  0.69221000  1
  C  C71  1  0.59120000  0.69221000  0.59092000  1
  C  C72  1  0.59294000  0.49423000  0.78543000  1
  C  C73  1  0.65706000  0.46457000  0.75577000  1
  C  C74  1  0.65880000  0.65908000  0.55779000  1
  C  C75  1  0.65908000  0.55779000  0.65880000  1
  C  C76  1  0.69060000  0.49499000  0.69276000  1
  C  C77  1  0.69221000  0.59092000  0.59120000  1
  C  C78  1  0.69276000  0.69060000  0.49499000  1
  C  C79  1  0.71457000  0.40706000  0.99423000  1
  C  C80  1  0.74423000  0.34294000  0.96457000  1
  C  C81  1  0.74499000  0.44060000  0.05724000  1
  C  C82  1  0.75501000  0.55940000  0.55724000  1
  C  C83  1  0.75577000  0.65706000  0.46457000  1
  C  C84  1  0.78543000  0.59294000  0.49423000  1
  C  C85  1  0.80724000  0.30940000  0.99499000  1
  C  C86  1  0.80779000  0.40908000  0.09120000  1
  C  C87  1  0.80940000  0.50501000  0.19276000  1
  C  C88  1  0.84092000  0.44221000  0.15880000  1
  C  C89  1  0.84120000  0.34092000  0.05779000  1
  C  C90  1  0.84294000  0.53543000  0.25577000  1
  C  C91  1  0.90706000  0.50577000  0.28543000  1
  C  C92  1  0.90880000  0.30779000  0.09092000  1
  C  C93  1  0.90908000  0.40880000  0.19221000  1
  C  C94  1  0.94060000  0.44276000  0.25501000  1
  C  C95  1  0.94221000  0.34120000  0.15908000  1
  C  C96  1  0.94276000  0.24499000  0.05940000  1
  C  C97  1  0.96457000  0.74423000  0.34294000  1
  C  C98  1  0.99423000  0.71457000  0.40706000  1
  C  C99  1  0.99499000  0.80724000  0.30940000  1
  O  O100  1  0.04113000  0.15730000  0.06848000  1
  O  O101  1  0.06848000  0.04113000  0.15730000  1
  O  O102  1  0.09270000  0.20887000  0.18152000  1
  O  O103  1  0.15730000  0.06848000  0.04113000  1
  O  O104  1  0.18152000  0.09270000  0.20887000  1
  O  O105  1  0.20887000  0.18152000  0.09270000  1
  O  O106  1  0.29113000  0.81848000  0.59270000  1
  O  O107  1  0.31848000  0.90730000  0.70887000  1
  O  O108  1  0.34270000  0.93152000  0.54113000  1
  O  O109  1  0.40730000  0.79113000  0.68152000  1
  O  O110  1  0.43152000  0.95887000  0.65730000  1
  O  O111  1  0.45887000  0.84270000  0.56848000  1
  O  O112  1  0.54113000  0.34270000  0.93152000  1
  O  O113  1  0.56848000  0.45887000  0.84270000  1
  O  O114  1  0.59270000  0.29113000  0.81848000  1
  O  O115  1  0.65730000  0.43152000  0.95887000  1
  O  O116  1  0.68152000  0.40730000  0.79113000  1
  O  O117  1  0.70887000  0.31848000  0.90730000  1
  O  O118  1  0.79113000  0.68152000  0.40730000  1
  O  O119  1  0.81848000  0.59270000  0.29113000  1
  O  O120  1  0.84270000  0.56848000  0.45887000  1
  O  O121  1  0.90730000  0.70887000  0.31848000  1
  O  O122  1  0.93152000  0.54113000  0.34270000  1
  O  O123  1  0.95887000  0.65730000  0.43152000  1
