# generated using pymatgen
data_CuH3(CO2)3
_symmetry_space_group_name_H-M   'P 1'
_cell_length_a   7.31920000
_cell_length_b   7.31920000
_cell_length_c   24.38100000
_cell_angle_alpha   90.00000000
_cell_angle_beta   90.00000000
_cell_angle_gamma   120.00000000
_symmetry_Int_Tables_number   1
_chemical_formula_structural   CuH3(CO2)3
_chemical_formula_sum   'Cu6 H18 C18 O36'
_cell_volume   1131.12180719
_cell_formula_units_Z   6
loop_
 _symmetry_equiv_pos_site_id
 _symmetry_equiv_pos_as_xyz
  1  'x, y, z'
loop_
 _atom_site_type_symbol
 _atom_site_label
 _atom_site_symmetry_multiplicity
 _atom_site_fract_x
 _atom_site_fract_y
 _atom_site_fract_z
 _atom_site_occupancy
  Cu  Cu0  1  0.68230000  0.36459000  0.58333000  1
  Cu  Cu1  1  0.68229000  0.31770000  0.25000000  1
  Cu  Cu2  1  0.63541000  0.31771000  0.91667000  1
  Cu  Cu3  1  0.36459000  0.68229000  0.41667000  1
  Cu  Cu4  1  0.31771000  0.68230000  0.75000000  1
  Cu  Cu5  1  0.31770000  0.63540000  0.08333000  1
  H  H6  1  0.00000000  0.40030000  0.16667000  1
  H  H7  1  0.00000000  0.59970000  0.66666667  1
  H  H8  1  0.97040000  0.44280000  0.83113000  1
  H  H9  1  0.97040000  0.52760000  0.00220000  1
  H  H10  1  0.59970000  0.59970000  0.50000000  1
  H  H11  1  0.59970000  1.00000000  0.33333333  1
  H  H12  1  0.55720000  0.02960000  0.66887000  1
  H  H13  1  0.55720000  0.52760000  0.16447000  1
  H  H14  1  0.52760000  0.55720000  0.83553000  1
  H  H15  1  0.52760000  0.97040000  0.99780000  1
  H  H16  1  0.47240000  0.02960000  0.49780000  1
  H  H17  1  0.47240000  0.44280000  0.33553000  1
  H  H18  1  0.44280000  0.47240000  0.66447000  1
  H  H19  1  0.44280000  0.97040000  0.16887000  1
  H  H20  1  0.40030000  0.40030000  0.00000000  1
  H  H21  1  0.40030000  1.00000000  0.83333000  1
  H  H22  1  0.02960000  0.47240000  0.50220000  1
  H  H23  1  0.02960000  0.55720000  0.33113000  1
  C  C24  1  0.00000000  0.47270000  0.66666667  1
  C  C25  1  0.00000000  0.52730000  0.16667000  1
  C  C26  1  0.96860000  0.39970000  0.00100000  1
  C  C27  1  0.96860000  0.56890000  0.83233000  1
  C  C28  1  0.60030000  0.03140000  0.49900000  1
  C  C29  1  0.60030000  0.56890000  0.33433000  1
  C  C30  1  0.56890000  0.60030000  0.66567000  1
  C  C31  1  0.56890000  0.96860000  0.16767000  1
  C  C32  1  0.52730000  0.52730000  0.00000000  1
  C  C33  1  0.52730000  1.00000000  0.83333000  1
  C  C34  1  0.47270000  0.47270000  0.50000000  1
  C  C35  1  0.47270000  1.00000000  0.33333333  1
  C  C36  1  0.43110000  0.03140000  0.66767000  1
  C  C37  1  0.43110000  0.39970000  0.16567000  1
  C  C38  1  0.39970000  0.43110000  0.83433000  1
  C  C39  1  0.39970000  0.96860000  0.99900000  1
  C  C40  1  0.03140000  0.43110000  0.33233000  1
  C  C41  1  0.03140000  0.60030000  0.50100000  1
  O  O42  1  0.92120000  0.29790000  0.29773000  1
  O  O43  1  0.92120000  0.62330000  0.53560000  1
  O  O44  1  0.88670000  0.33810000  0.63246000  1
  O  O45  1  0.88670000  0.54860000  0.20087000  1
  O  O46  1  0.85910000  0.27860000  0.96577000  1
  O  O47  1  0.85910000  0.58050000  0.86756000  1
  O  O48  1  0.72140000  0.14090000  0.53423000  1
  O  O49  1  0.72140000  0.58050000  0.29910000  1
  O  O50  1  0.70210000  0.07880000  0.20227000  1
  O  O51  1  0.70210000  0.62330000  0.63107000  1
  O  O52  1  0.66190000  0.11330000  0.86754000  1
  O  O53  1  0.66190000  0.54860000  0.96579000  1
  O  O54  1  0.62330000  0.70210000  0.36893000  1
  O  O55  1  0.62330000  0.92120000  0.46440000  1
  O  O56  1  0.58050000  0.72140000  0.70090000  1
  O  O57  1  0.58050000  0.85910000  0.13244000  1
  O  O58  1  0.54860000  0.66190000  0.03421000  1
  O  O59  1  0.54860000  0.88670000  0.79913000  1
  O  O60  1  0.45140000  0.11330000  0.29913000  1
  O  O61  1  0.45140000  0.33810000  0.53421000  1
  O  O62  1  0.41950000  0.14090000  0.63244000  1
  O  O63  1  0.41950000  0.27860000  0.20090000  1
  O  O64  1  0.37670000  0.07880000  0.96440000  1
  O  O65  1  0.37670000  0.29790000  0.86893000  1
  O  O66  1  0.33810000  0.45140000  0.46579000  1
  O  O67  1  0.33810000  0.88670000  0.36754000  1
  O  O68  1  0.29790000  0.37670000  0.13107000  1
  O  O69  1  0.29790000  0.92120000  0.70227000  1
  O  O70  1  0.27860000  0.41950000  0.79910000  1
  O  O71  1  0.27860000  0.85910000  0.03423000  1
  O  O72  1  0.14090000  0.41950000  0.36756000  1
  O  O73  1  0.14090000  0.72140000  0.46577000  1
  O  O74  1  0.11330000  0.45140000  0.70087000  1
  O  O75  1  0.11330000  0.66190000  0.13246000  1
  O  O76  1  0.07880000  0.37670000  0.03560000  1
  O  O77  1  0.07880000  0.70210000  0.79773000  1
