# generated using pymatgen
data_Ni3H45C72N3O13
_symmetry_space_group_name_H-M   'P 1'
_cell_length_a   29.27011880
_cell_length_b   29.26980000
_cell_length_c   29.26980000
_cell_angle_alpha   109.47100000
_cell_angle_beta   109.47144127
_cell_angle_gamma   109.47144127
_symmetry_Int_Tables_number   1
_chemical_formula_structural   Ni3H45C72N3O13
_chemical_formula_sum   'Ni12 H180 C288 N12 O52'
_cell_volume   19303.71609256
_cell_formula_units_Z   4
loop_
 _symmetry_equiv_pos_site_id
 _symmetry_equiv_pos_as_xyz
  1  'x, y, z'
loop_
 _atom_site_type_symbol
 _atom_site_label
 _atom_site_symmetry_multiplicity
 _atom_site_fract_x
 _atom_site_fract_y
 _atom_site_fract_z
 _atom_site_occupancy
  Ni  Ni0  1  0.92454000  0.65746000  0.93268000  1
  Ni  Ni1  1  0.00814000  0.73292000  0.07546000  1
  Ni  Ni2  1  0.26708000  0.27522000  0.34254000  1
  Ni  Ni3  1  0.65746000  0.93268000  0.92454000  1
  Ni  Ni4  1  0.73292000  0.07546000  0.00814000  1
  Ni  Ni5  1  0.72478000  0.99186000  0.06732000  1
  Ni  Ni6  1  0.07546000  0.00814000  0.73292000  1
  Ni  Ni7  1  0.93268000  0.92454000  0.65746000  1
  Ni  Ni8  1  0.99186000  0.06732000  0.72478000  1
  Ni  Ni9  1  0.06732000  0.72478000  0.99186000  1
  Ni  Ni10  1  0.34254000  0.26708000  0.27522000  1
  Ni  Ni11  1  0.27522000  0.34254000  0.26708000  1
  H  H12  1  0.86620000  0.11070000  0.87030000  1
  H  H13  1  0.84310000  0.53240000  0.85850000  1
  H  H14  1  0.60080000  0.35720000  0.61940000  1
  H  H15  1  0.68540000  0.41680000  0.70420000  1
  H  H16  1  0.75660000  0.47030000  0.77590000  1
  H  H17  1  0.82900000  0.66350000  0.85190000  1
  H  H18  1  0.74260000  0.60140000  0.76940000  1
  H  H19  1  0.58910000  0.49140000  0.61970000  1
  H  H20  1  0.67370000  0.55100000  0.70450000  1
  H  H21  1  0.33810000  0.50090000  0.40140000  1
  H  H22  1  0.13970000  0.63150000  0.20320000  1
  H  H23  1  0.10440000  0.68270000  0.17190000  1
  H  H24  1  0.10840000  0.91110000  0.17650000  1
  H  H25  1  0.10170000  0.28760000  0.18350000  1
  H  H26  1  0.73460000  0.93190000  0.82350000  1
  H  H27  1  0.38930000  0.58740000  0.48390000  1
  H  H28  1  0.49140000  0.61970000  0.58910000  1
  H  H29  1  0.40140000  0.33810000  0.50090000  1
  H  H30  1  0.81650000  0.10410000  0.91820000  1
  H  H31  1  0.48390000  0.38930000  0.58740000  1
  H  H32  1  0.18350000  0.10170000  0.28760000  1
  H  H33  1  0.82810000  0.51080000  0.93250000  1
  H  H34  1  0.82350000  0.73460000  0.93190000  1
  H  H35  1  0.13380000  0.00410000  0.24450000  1
  H  H36  1  0.55100000  0.70450000  0.67370000  1
  H  H37  1  0.90230000  0.41090000  0.03060000  1
  H  H38  1  0.00410000  0.24450000  0.13380000  1
  H  H39  1  0.75550000  0.75960000  0.88930000  1
  H  H40  1  0.79680000  0.42830000  0.93650000  1
  H  H41  1  0.60140000  0.76940000  0.74260000  1
  H  H42  1  0.01540000  0.68930000  0.15690000  1
  H  H43  1  0.02290000  0.83450000  0.17100000  1
  H  H44  1  0.87730000  0.32630000  0.03080000  1
  H  H45  1  0.31070000  0.32610000  0.46760000  1
  H  H46  1  0.93670000  0.59860000  0.09950000  1
  H  H47  1  0.66350000  0.85190000  0.82900000  1
  H  H48  1  0.85880000  0.25740000  0.02680000  1
  H  H49  1  0.16550000  0.18840000  0.33650000  1
  H  H50  1  0.31730000  0.42170000  0.48920000  1
  H  H51  1  0.08890000  0.19730000  0.26540000  1
  H  H52  1  0.71240000  0.81410000  0.89590000  1
  H  H53  1  0.91820000  0.81650000  0.10410000  1
  H  H54  1  0.83450000  0.17100000  0.02290000  1
  H  H55  1  0.91110000  0.17650000  0.10840000  1
  H  H56  1  0.90540000  0.51610000  0.10350000  1
  H  H57  1  0.36850000  0.50820000  0.57170000  1
  H  H58  1  0.01930000  0.71370000  0.24340000  1
  H  H59  1  0.02680000  0.85880000  0.25740000  1
  H  H60  1  0.87030000  0.86620000  0.11070000  1
  H  H61  1  0.28630000  0.30560000  0.52970000  1
  H  H62  1  0.35720000  0.61940000  0.60080000  1
  H  H63  1  0.99590000  0.12970000  0.24040000  1
  H  H64  1  0.14120000  0.16800000  0.39860000  1
  H  H65  1  0.75640000  0.39920000  0.01860000  1
  H  H66  1  0.80270000  0.89160000  0.06810000  1
  H  H67  1  0.41680000  0.70420000  0.68540000  1
  H  H68  1  0.47030000  0.77590000  0.75660000  1
  H  H69  1  0.73140000  0.31460000  0.01880000  1
  H  H70  1  0.89830000  0.08180000  0.18590000  1
  H  H71  1  0.03080000  0.87730000  0.32630000  1
  H  H72  1  0.01880000  0.73140000  0.31460000  1
  H  H73  1  0.71370000  0.24340000  0.01930000  1
  H  H74  1  0.53240000  0.85850000  0.84310000  1
  H  H75  1  0.26860000  0.28740000  0.58320000  1
  H  H76  1  0.51080000  0.93250000  0.82810000  1
  H  H77  1  0.68930000  0.15690000  0.01540000  1
  H  H78  1  0.12270000  0.15350000  0.44900000  1
  H  H79  1  0.81160000  0.97710000  0.14810000  1
  H  H80  1  0.59860000  0.09950000  0.93670000  1
  H  H81  1  0.39920000  0.01860000  0.75640000  1
  H  H82  1  0.42830000  0.93650000  0.79680000  1
  H  H83  1  0.03060000  0.90230000  0.41090000  1
  H  H84  1  0.01860000  0.75640000  0.39920000  1
  H  H85  1  0.51610000  0.10350000  0.90540000  1
  H  H86  1  0.83200000  0.97320000  0.23060000  1
  H  H87  1  0.24360000  0.26220000  0.64280000  1
  H  H88  1  0.49910000  0.83720000  0.90050000  1
  H  H89  1  0.09770000  0.12830000  0.50860000  1
  H  H90  1  0.10350000  0.90540000  0.51610000  1
  H  H91  1  0.31460000  0.01880000  0.73140000  1
  H  H92  1  0.68270000  0.17190000  0.10440000  1
  H  H93  1  0.20320000  0.13970000  0.63150000  1
  H  H94  1  0.84650000  0.96920000  0.29550000  1
  H  H95  1  0.67390000  0.98460000  0.14150000  1
  H  H96  1  0.24340000  0.01930000  0.71370000  1
  H  H97  1  0.41260000  0.80190000  0.89650000  1
  H  H98  1  0.57830000  0.89560000  0.06750000  1
  H  H99  1  0.41090000  0.03060000  0.90230000  1
  H  H100  1  0.93650000  0.79680000  0.42830000  1
  H  H101  1  0.09950000  0.93670000  0.59860000  1
  H  H102  1  0.66190000  0.06330000  0.16280000  1
  H  H103  1  0.63150000  0.20320000  0.13970000  1
  H  H104  1  0.87170000  0.96940000  0.38030000  1
  H  H105  1  0.17190000  0.10440000  0.68270000  1
  H  H106  1  0.09460000  0.19810000  0.61070000  1
  H  H107  1  0.69440000  0.98070000  0.22410000  1
  H  H108  1  0.15690000  0.01540000  0.68930000  1
  H  H109  1  0.32630000  0.03080000  0.87730000  1
  H  H110  1  0.49180000  0.86030000  0.06350000  1
  H  H111  1  0.93250000  0.82810000  0.51080000  1
  H  H112  1  0.71260000  0.98120000  0.29580000  1
  H  H113  1  0.61070000  0.09460000  0.19810000  1
  H  H114  1  0.38030000  0.87170000  0.96940000  1
  H  H115  1  0.06330000  0.16280000  0.66190000  1
  H  H116  1  0.38060000  0.73780000  0.98140000  1
  H  H117  1  0.25740000  0.02680000  0.85880000  1
  H  H118  1  0.80190000  0.89650000  0.41260000  1
  H  H119  1  0.64280000  0.24360000  0.26220000  1
  H  H120  1  0.50860000  0.09770000  0.12830000  1
  H  H121  1  0.86030000  0.06350000  0.49180000  1
  H  H122  1  0.73780000  0.98140000  0.38060000  1
  H  H123  1  0.83720000  0.90050000  0.49910000  1
  H  H124  1  0.17100000  0.02290000  0.83450000  1
  H  H125  1  0.29550000  0.84650000  0.96920000  1
  H  H126  1  0.85850000  0.84310000  0.53240000  1
  H  H127  1  0.89560000  0.06750000  0.57830000  1
  H  H128  1  0.29580000  0.71260000  0.98120000  1
  H  H129  1  0.98460000  0.14150000  0.67390000  1
  H  H130  1  0.77590000  0.75660000  0.47030000  1
  H  H131  1  0.58320000  0.26860000  0.28740000  1
  H  H132  1  0.44900000  0.12270000  0.15350000  1
  H  H133  1  0.10410000  0.91820000  0.81650000  1
  H  H134  1  0.70420000  0.68540000  0.41680000  1
  H  H135  1  0.98070000  0.22410000  0.69440000  1
  H  H136  1  0.98120000  0.29580000  0.71260000  1
  H  H137  1  0.17650000  0.10840000  0.91110000  1
  H  H138  1  0.61940000  0.60080000  0.35720000  1
  H  H139  1  0.23060000  0.83200000  0.97320000  1
  H  H140  1  0.11070000  0.87030000  0.86620000  1
  H  H141  1  0.98140000  0.38060000  0.73780000  1
  H  H142  1  0.22410000  0.69440000  0.98070000  1
  H  H143  1  0.24450000  0.13380000  0.00410000  1
  H  H144  1  0.39860000  0.14120000  0.16800000  1
  H  H145  1  0.52970000  0.28630000  0.30560000  1
  H  H146  1  0.06350000  0.49180000  0.86030000  1
  H  H147  1  0.58740000  0.48390000  0.38930000  1
  H  H148  1  0.93190000  0.82350000  0.73460000  1
  H  H149  1  0.85190000  0.82900000  0.66350000  1
  H  H150  1  0.28760000  0.18350000  0.10170000  1
  H  H151  1  0.08180000  0.18590000  0.89830000  1
  H  H152  1  0.06810000  0.80270000  0.89160000  1
  H  H153  1  0.06750000  0.57830000  0.89560000  1
  H  H154  1  0.14810000  0.81160000  0.97710000  1
  H  H155  1  0.76940000  0.74260000  0.60140000  1
  H  H156  1  0.97710000  0.14810000  0.81160000  1
  H  H157  1  0.50090000  0.40140000  0.33810000  1
  H  H158  1  0.14150000  0.67390000  0.98460000  1
  H  H159  1  0.70450000  0.67370000  0.55100000  1
  H  H160  1  0.33650000  0.16550000  0.18840000  1
  H  H161  1  0.46760000  0.31070000  0.32610000  1
  H  H162  1  0.97320000  0.23060000  0.83200000  1
  H  H163  1  0.50820000  0.57170000  0.36850000  1
  H  H164  1  0.12970000  0.24040000  0.99590000  1
  H  H165  1  0.88930000  0.75550000  0.75960000  1
  H  H166  1  0.61970000  0.58910000  0.49140000  1
  H  H167  1  0.96920000  0.29550000  0.84650000  1
  H  H168  1  0.24040000  0.99590000  0.12970000  1
  H  H169  1  0.19730000  0.26540000  0.08890000  1
  H  H170  1  0.42170000  0.48920000  0.31730000  1
  H  H171  1  0.18590000  0.89830000  0.08180000  1
  H  H172  1  0.19810000  0.61070000  0.09460000  1
  H  H173  1  0.81410000  0.89590000  0.71240000  1
  H  H174  1  0.16280000  0.66190000  0.06330000  1
  H  H175  1  0.96940000  0.38030000  0.87170000  1
  H  H176  1  0.89650000  0.41260000  0.80190000  1
  H  H177  1  0.89160000  0.06810000  0.80270000  1
  H  H178  1  0.89590000  0.71240000  0.81410000  1
  H  H179  1  0.26540000  0.08890000  0.19730000  1
  H  H180  1  0.48920000  0.31730000  0.42170000  1
  H  H181  1  0.57170000  0.36850000  0.50820000  1
  H  H182  1  0.90050000  0.49910000  0.83720000  1
  H  H183  1  0.15350000  0.44900000  0.12270000  1
  H  H184  1  0.12830000  0.50860000  0.09770000  1
  H  H185  1  0.16800000  0.39860000  0.14120000  1
  H  H186  1  0.18840000  0.33650000  0.16550000  1
  H  H187  1  0.30560000  0.52970000  0.28630000  1
  H  H188  1  0.28740000  0.58320000  0.26860000  1
  H  H189  1  0.26220000  0.64280000  0.24360000  1
  H  H190  1  0.32610000  0.46760000  0.31070000  1
  H  H191  1  0.75960000  0.88930000  0.75550000  1
  C  C192  1  0.38833000  0.30259000  0.39970000  1
  C  C193  1  0.25799000  0.16701000  0.26942000  1
  C  C194  1  0.79246000  0.97362000  0.80516000  1
  C  C195  1  0.43752000  0.32294000  0.45314000  1
  C  C196  1  0.23004000  0.10591000  0.24653000  1
  C  C197  1  0.82269000  0.54642000  0.84041000  1
  C  C198  1  0.77134000  0.50954000  0.79136000  1
  C  C199  1  0.53560000  0.38369000  0.55595000  1
  C  C200  1  0.61557000  0.39652000  0.63669000  1
  C  C201  1  0.66586000  0.43194000  0.68708000  1
  C  C202  1  0.83992000  0.07491000  0.86123000  1
  C  C203  1  0.81434000  0.62430000  0.83650000  1
  C  C204  1  0.74149000  0.53003000  0.76488000  1
  C  C205  1  0.76299000  0.58742000  0.78745000  1
  C  C206  1  0.58694000  0.41867000  0.61157000  1
  C  C207  1  0.68750000  0.48950000  0.71234000  1
  C  C208  1  0.16846000  0.98730000  0.19484000  1
  C  C209  1  0.60859000  0.47622000  0.63683000  1
  C  C210  1  0.65887000  0.51164000  0.68721000  1
  C  C211  1  0.14440000  0.63769000  0.17483000  1
  C  C212  1  0.13463000  0.92783000  0.16672000  1
  C  C213  1  0.12338000  0.66808000  0.15618000  1
  C  C214  1  0.43598000  0.34433000  0.50239000  1
  C  C215  1  0.48502000  0.37471000  0.55379000  1
  C  C216  1  0.18971000  0.07952000  0.26087000  1
  C  C217  1  0.76111000  0.96791000  0.83328000  1
  C  C218  1  0.16008000  0.02131000  0.23499000  1
  C  C219  1  0.81029000  0.07116000  0.88981000  1
  C  C220  1  0.30259000  0.39970000  0.38833000  1
  C  C221  1  0.16701000  0.26942000  0.25799000  1
  C  C222  1  0.34433000  0.50239000  0.43598000  1
  C  C223  1  0.91426000  0.61167000  0.01137000  1
  C  C224  1  0.90902000  0.74201000  0.01143000  1
  C  C225  1  0.76996000  0.01649000  0.87587000  1
  C  C226  1  0.07952000  0.26087000  0.18971000  1
  C  C227  1  0.37471000  0.55379000  0.48502000  1
  C  C228  1  0.32294000  0.45314000  0.43752000  1
  C  C229  1  0.84382000  0.51190000  0.96720000  1
  C  C230  1  0.10591000  0.24653000  0.23004000  1
  C  C231  1  0.88542000  0.56248000  0.01562000  1
  C  C232  1  0.47622000  0.63683000  0.60859000  1
  C  C233  1  0.83328000  0.76111000  0.96791000  1
  C  C234  1  0.02131000  0.23499000  0.16008000  1
  C  C235  1  0.87587000  0.76996000  0.01649000  1
  C  C236  1  0.82517000  0.46286000  0.96957000  1
  C  C237  1  0.51164000  0.68721000  0.65887000  1
  C  C238  1  0.38369000  0.55595000  0.53560000  1
  C  C239  1  0.33192000  0.45530000  0.48810000  1
  C  C240  1  0.90835000  0.56402000  0.06641000  1
  C  C241  1  0.01772000  0.72373000  0.17731000  1
  C  C242  1  0.76501000  0.78632000  0.92509000  1
  C  C243  1  0.86763000  0.39141000  0.02824000  1
  C  C244  1  0.02216000  0.80996000  0.18566000  1
  C  C245  1  0.07217000  0.20680000  0.23889000  1
  C  C246  1  0.74201000  0.01143000  0.90902000  1
  C  C247  1  0.41867000  0.61157000  0.58694000  1
  C  C248  1  0.80516000  0.79246000  0.97362000  1
  C  C249  1  0.84809000  0.46440000  0.02035000  1
  C  C250  1  0.36231000  0.50671000  0.53714000  1
  C  C251  1  0.58742000  0.78745000  0.76299000  1
  C  C252  1  0.85277000  0.34113000  0.02834000  1
  C  C253  1  0.27627000  0.29399000  0.45358000  1
  C  C254  1  0.88969000  0.51498000  0.06877000  1
  C  C255  1  0.98730000  0.19484000  0.16846000  1
  C  C256  1  0.88981000  0.81029000  0.07116000  1
  C  C257  1  0.19004000  0.21220000  0.37570000  1
  C  C258  1  0.73913000  0.81865000  0.92884000  1
  C  C259  1  0.62430000  0.83650000  0.81434000  1
  C  C260  1  0.83173000  0.41306000  0.02463000  1
  C  C261  1  0.01270000  0.18116000  0.20754000  1
  C  C262  1  0.48950000  0.71234000  0.68750000  1
  C  C263  1  0.82443000  0.23701000  0.02446000  1
  C  C264  1  0.92783000  0.16672000  0.13463000  1
  C  C265  1  0.81884000  0.83154000  0.02638000  1
  C  C266  1  0.02002000  0.73820000  0.22866000  1
  C  C267  1  0.53003000  0.76488000  0.74149000  1
  C  C268  1  0.80996000  0.18566000  0.02216000  1
  C  C269  1  0.02446000  0.82443000  0.23701000  1
  C  C270  1  0.86123000  0.83992000  0.07491000  1
  C  C271  1  0.39652000  0.63669000  0.61557000  1
  C  C272  1  0.80200000  0.31250000  0.02484000  1
  C  C273  1  0.26180000  0.28182000  0.49046000  1
  C  C274  1  0.75347000  0.85938000  0.98351000  1
  C  C275  1  0.43194000  0.68708000  0.66586000  1
  C  C276  1  0.78854000  0.25851000  0.02339000  1
  C  C277  1  0.97869000  0.13877000  0.21368000  1
  C  C278  1  0.02339000  0.78854000  0.25851000  1
  C  C279  1  0.17557000  0.20003000  0.41258000  1
  C  C280  1  0.79320000  0.86537000  0.03209000  1
  C  C281  1  0.78095000  0.38443000  0.02112000  1
  C  C282  1  0.89409000  0.12413000  0.14062000  1
  C  C283  1  0.76608000  0.33414000  0.02122000  1
  C  C284  1  0.73058000  0.89759000  0.98857000  1
  C  C285  1  0.21146000  0.23485000  0.46997000  1
  C  C286  1  0.92048000  0.11019000  0.18135000  1
  C  C287  1  0.50954000  0.79136000  0.77134000  1
  C  C288  1  0.83299000  0.09098000  0.10241000  1
  C  C289  1  0.54642000  0.84041000  0.82269000  1
  C  C290  1  0.73820000  0.22866000  0.02002000  1
  C  C291  1  0.02484000  0.80200000  0.31250000  1
  C  C292  1  0.72373000  0.17731000  0.01772000  1
  C  C293  1  0.61167000  0.01137000  0.91426000  1
  C  C294  1  0.19800000  0.22284000  0.51050000  1
  C  C295  1  0.02834000  0.85277000  0.34113000  1
  C  C296  1  0.02122000  0.76608000  0.33414000  1
  C  C297  1  0.56248000  0.01562000  0.88542000  1
  C  C298  1  0.51190000  0.96720000  0.84382000  1
  C  C299  1  0.23392000  0.25514000  0.56806000  1
  C  C300  1  0.14723000  0.17557000  0.48836000  1
  C  C301  1  0.56402000  0.06641000  0.90835000  1
  C  C302  1  0.46286000  0.96957000  0.82517000  1
  C  C303  1  0.02824000  0.86763000  0.39141000  1
  C  C304  1  0.02112000  0.78095000  0.38443000  1
  C  C305  1  0.51498000  0.06877000  0.88969000  1
  C  C306  1  0.78780000  0.97784000  0.16350000  1
  C  C307  1  0.46440000  0.02035000  0.84809000  1
  C  C308  1  0.21905000  0.24017000  0.60348000  1
  C  C309  1  0.60030000  0.90289000  0.98863000  1
  C  C310  1  0.02463000  0.83173000  0.41306000  1
  C  C311  1  0.13237000  0.16061000  0.52378000  1
  C  C312  1  0.38443000  0.02112000  0.78095000  1
  C  C313  1  0.69741000  0.08574000  0.09711000  1
  C  C314  1  0.79997000  0.97554000  0.21255000  1
  C  C315  1  0.16827000  0.19290000  0.58133000  1
  C  C316  1  0.41306000  0.02463000  0.83173000  1
  C  C317  1  0.33414000  0.02122000  0.76608000  1
  C  C318  1  0.49761000  0.84194000  0.93359000  1
  C  C319  1  0.54686000  0.86980000  0.98438000  1
  C  C320  1  0.02035000  0.84809000  0.46440000  1
  C  C321  1  0.06877000  0.88969000  0.51498000  1
  C  C322  1  0.67706000  0.11458000  0.13020000  1
  C  C323  1  0.70601000  0.98228000  0.15959000  1
  C  C324  1  0.66808000  0.15618000  0.12338000  1
  C  C325  1  0.17483000  0.14440000  0.63769000  1
  C  C326  1  0.15191000  0.17226000  0.61631000  1
  C  C327  1  0.76515000  0.97661000  0.23512000  1
  C  C328  1  0.39141000  0.02824000  0.86763000  1
  C  C329  1  0.44621000  0.82092000  0.93123000  1
  C  C330  1  0.54470000  0.87662000  0.03280000  1
  C  C331  1  0.82443000  0.97166000  0.31279000  1
  C  C332  1  0.31250000  0.02484000  0.80200000  1
  C  C333  1  0.71818000  0.97998000  0.20864000  1
  C  C334  1  0.96957000  0.82517000  0.46286000  1
  C  C335  1  0.06641000  0.90835000  0.56402000  1
  C  C336  1  0.65567000  0.09165000  0.15806000  1
  C  C337  1  0.63769000  0.17483000  0.14440000  1
  C  C338  1  0.22866000  0.02002000  0.73820000  1
  C  C339  1  0.77716000  0.97516000  0.28766000  1
  C  C340  1  0.34113000  0.02834000  0.85277000  1
  C  C341  1  0.15618000  0.12338000  0.66808000  1
  C  C342  1  0.11031000  0.17908000  0.62529000  1
  C  C343  1  0.83939000  0.97176000  0.36317000  1
  C  C344  1  0.25851000  0.02339000  0.78854000  1
  C  C345  1  0.44405000  0.82774000  0.97965000  1
  C  C346  1  0.49329000  0.85560000  0.03043000  1
  C  C347  1  0.96720000  0.84382000  0.51190000  1
  C  C348  1  0.17731000  0.01772000  0.72373000  1
  C  C349  1  0.01562000  0.88542000  0.56248000  1
  C  C350  1  0.62529000  0.11031000  0.17908000  1
  C  C351  1  0.61631000  0.15191000  0.17226000  1
  C  C352  1  0.11458000  0.13020000  0.67706000  1
  C  C353  1  0.09165000  0.15806000  0.65567000  1
  C  C354  1  0.74486000  0.97878000  0.31292000  1
  C  C355  1  0.80710000  0.97537000  0.38843000  1
  C  C356  1  0.38843000  0.80710000  0.97537000  1
  C  C357  1  0.23701000  0.02446000  0.82443000  1
  C  C358  1  0.01137000  0.91426000  0.61167000  1
  C  C359  1  0.75983000  0.97888000  0.36331000  1
  C  C360  1  0.36317000  0.83939000  0.97176000  1
  C  C361  1  0.58133000  0.16827000  0.19290000  1
  C  C362  1  0.08574000  0.09711000  0.69741000  1
  C  C363  1  0.36331000  0.75983000  0.97888000  1
  C  C364  1  0.82774000  0.97965000  0.44405000  1
  C  C365  1  0.18566000  0.02216000  0.80996000  1
  C  C366  1  0.82092000  0.93123000  0.44621000  1
  C  C367  1  0.60348000  0.21905000  0.24017000  1
  C  C368  1  0.52378000  0.13237000  0.16061000  1
  C  C369  1  0.85560000  0.03043000  0.49329000  1
  C  C370  1  0.84194000  0.93359000  0.49761000  1
  C  C371  1  0.31279000  0.82443000  0.97166000  1
  C  C372  1  0.31292000  0.74486000  0.97878000  1
  C  C373  1  0.87662000  0.03280000  0.54470000  1
  C  C374  1  0.86980000  0.98438000  0.54686000  1
  C  C375  1  0.56806000  0.23392000  0.25514000  1
  C  C376  1  0.48836000  0.14723000  0.17557000  1
  C  C377  1  0.28766000  0.77716000  0.97516000  1
  C  C378  1  0.90289000  0.98863000  0.60030000  1
  C  C379  1  0.84041000  0.82269000  0.54642000  1
  C  C380  1  0.51050000  0.19800000  0.22284000  1
  C  C381  1  0.79136000  0.77134000  0.50954000  1
  C  C382  1  0.98228000  0.15959000  0.70601000  1
  C  C383  1  0.01143000  0.90902000  0.74201000  1
  C  C384  1  0.97998000  0.20864000  0.71818000  1
  C  C385  1  0.07116000  0.88981000  0.81029000  1
  C  C386  1  0.23512000  0.76515000  0.97661000  1
  C  C387  1  0.09098000  0.10241000  0.83299000  1
  C  C388  1  0.68708000  0.66586000  0.43194000  1
  C  C389  1  0.01649000  0.87587000  0.76996000  1
  C  C390  1  0.63669000  0.61557000  0.39652000  1
  C  C391  1  0.16672000  0.13463000  0.92783000  1
  C  C392  1  0.21255000  0.79997000  0.97554000  1
  C  C393  1  0.46997000  0.21146000  0.23485000  1
  C  C394  1  0.07491000  0.86123000  0.83992000  1
  C  C395  1  0.76488000  0.74149000  0.53003000  1
  C  C396  1  0.97878000  0.31292000  0.74486000  1
  C  C397  1  0.12413000  0.14062000  0.89409000  1
  C  C398  1  0.20864000  0.71818000  0.97998000  1
  C  C399  1  0.71234000  0.68750000  0.48950000  1
  C  C400  1  0.97888000  0.36331000  0.75983000  1
  C  C401  1  0.23499000  0.16008000  0.02131000  1
  C  C402  1  0.41258000  0.17557000  0.20003000  1
  C  C403  1  0.83650000  0.81434000  0.62430000  1
  C  C404  1  0.97661000  0.23512000  0.76515000  1
  C  C405  1  0.49046000  0.26180000  0.28182000  1
  C  C406  1  0.19484000  0.16846000  0.98730000  1
  C  C407  1  0.96791000  0.83328000  0.76111000  1
  C  C408  1  0.78745000  0.76299000  0.58742000  1
  C  C409  1  0.97516000  0.28766000  0.77716000  1
  C  C410  1  0.02638000  0.81884000  0.83154000  1
  C  C411  1  0.61157000  0.58694000  0.41867000  1
  C  C412  1  0.97784000  0.16350000  0.78780000  1
  C  C413  1  0.11019000  0.18135000  0.92048000  1
  C  C414  1  0.16350000  0.78780000  0.97784000  1
  C  C415  1  0.26087000  0.18971000  0.07952000  1
  C  C416  1  0.97362000  0.80516000  0.79246000  1
  C  C417  1  0.55379000  0.48502000  0.37471000  1
  C  C418  1  0.15959000  0.70601000  0.98228000  1
  C  C419  1  0.97554000  0.21255000  0.79997000  1
  C  C420  1  0.68721000  0.65887000  0.51164000  1
  C  C421  1  0.03043000  0.49329000  0.85560000  1
  C  C422  1  0.55595000  0.53560000  0.38369000  1
  C  C423  1  0.18116000  0.20754000  0.01270000  1
  C  C424  1  0.97537000  0.38843000  0.80710000  1
  C  C425  1  0.89759000  0.98857000  0.73058000  1
  C  C426  1  0.03209000  0.79320000  0.86537000  1
  C  C427  1  0.37570000  0.19004000  0.21220000  1
  C  C428  1  0.63683000  0.60859000  0.47622000  1
  C  C429  1  0.13877000  0.21368000  0.97869000  1
  C  C430  1  0.45358000  0.27627000  0.29399000  1
  C  C431  1  0.50239000  0.43598000  0.34433000  1
  C  C432  1  0.03280000  0.54470000  0.87662000  1
  C  C433  1  0.97965000  0.44405000  0.82774000  1
  C  C434  1  0.97166000  0.31279000  0.82443000  1
  C  C435  1  0.50671000  0.53714000  0.36231000  1
  C  C436  1  0.24653000  0.23004000  0.10591000  1
  C  C437  1  0.92509000  0.76501000  0.78632000  1
  C  C438  1  0.20680000  0.23889000  0.07217000  1
  C  C439  1  0.97176000  0.36317000  0.83939000  1
  C  C440  1  0.45314000  0.43752000  0.32294000  1
  C  C441  1  0.98351000  0.75347000  0.85938000  1
  C  C442  1  0.45530000  0.48810000  0.33192000  1
  C  C443  1  0.98438000  0.54686000  0.86980000  1
  C  C444  1  0.93123000  0.44621000  0.82092000  1
  C  C445  1  0.92884000  0.73913000  0.81865000  1
  C  C446  1  0.85938000  0.98351000  0.75347000  1
  C  C447  1  0.26942000  0.25799000  0.16701000  1
  C  C448  1  0.39970000  0.38833000  0.30259000  1
  C  C449  1  0.93359000  0.49761000  0.84194000  1
  C  C450  1  0.98857000  0.73058000  0.89759000  1
  C  C451  1  0.98863000  0.60030000  0.90289000  1
  C  C452  1  0.81865000  0.92884000  0.73913000  1
  C  C453  1  0.21368000  0.97869000  0.13877000  1
  C  C454  1  0.86537000  0.03209000  0.79320000  1
  C  C455  1  0.18135000  0.92048000  0.11019000  1
  C  C456  1  0.17908000  0.62529000  0.11031000  1
  C  C457  1  0.15806000  0.65567000  0.09165000  1
  C  C458  1  0.48810000  0.33192000  0.45530000  1
  C  C459  1  0.23889000  0.07217000  0.20680000  1
  C  C460  1  0.53714000  0.36231000  0.50671000  1
  C  C461  1  0.17557000  0.48836000  0.14723000  1
  C  C462  1  0.16061000  0.52378000  0.13237000  1
  C  C463  1  0.20754000  0.01270000  0.18116000  1
  C  C464  1  0.22284000  0.51050000  0.19800000  1
  C  C465  1  0.19290000  0.58133000  0.16827000  1
  C  C466  1  0.20003000  0.41258000  0.17557000  1
  C  C467  1  0.23485000  0.46997000  0.21146000  1
  C  C468  1  0.21220000  0.37570000  0.19004000  1
  C  C469  1  0.78632000  0.92509000  0.76501000  1
  C  C470  1  0.25514000  0.56806000  0.23392000  1
  C  C471  1  0.24017000  0.60348000  0.21905000  1
  C  C472  1  0.17226000  0.61631000  0.15191000  1
  C  C473  1  0.28182000  0.49046000  0.26180000  1
  C  C474  1  0.29399000  0.45358000  0.27627000  1
  C  C475  1  0.14062000  0.89409000  0.12413000  1
  C  C476  1  0.13020000  0.67706000  0.11458000  1
  C  C477  1  0.83154000  0.02638000  0.81884000  1
  C  C478  1  0.10241000  0.83299000  0.09098000  1
  C  C479  1  0.09711000  0.69741000  0.08574000  1
  N  N480  1  0.84418000  0.60380000  0.86298000  1
  N  N481  1  0.01880000  0.75962000  0.15582000  1
  N  N482  1  0.24038000  0.25918000  0.39620000  1
  N  N483  1  0.60380000  0.86298000  0.84418000  1
  N  N484  1  0.75962000  0.15582000  0.01880000  1
  N  N485  1  0.74082000  0.98120000  0.13702000  1
  N  N486  1  0.15582000  0.01880000  0.75962000  1
  N  N487  1  0.86298000  0.84418000  0.60380000  1
  N  N488  1  0.98120000  0.13702000  0.74082000  1
  N  N489  1  0.13702000  0.74082000  0.98120000  1
  N  N490  1  0.39620000  0.24038000  0.25918000  1
  N  N491  1  0.25918000  0.39620000  0.24038000  1
  O  O492  1  0.00000000  0.71176000  1.00000000  1
  O  O493  1  0.07019000  0.71399000  0.10546000  1
  O  O494  1  0.06639000  0.81378000  0.10451000  1
  O  O495  1  0.29790000  0.39894000  0.34466000  1
  O  O496  1  0.19234000  0.30087000  0.24607000  1
  O  O497  1  0.34466000  0.29790000  0.39894000  1
  O  O498  1  0.24607000  0.19234000  0.30087000  1
  O  O499  1  0.89549000  0.70927000  0.96188000  1
  O  O500  1  0.89454000  0.60853000  0.96473000  1
  O  O501  1  0.95324000  0.65534000  0.05428000  1
  O  O502  1  0.18622000  0.25261000  0.29073000  1
  O  O503  1  0.28601000  0.35620000  0.39147000  1
  O  O504  1  0.94627000  0.75393000  0.05480000  1
  O  O505  1  0.70927000  0.96188000  0.89549000  1
  O  O506  1  0.75393000  0.05480000  0.94627000  1
  O  O507  1  0.69913000  0.89147000  0.94520000  1
  O  O508  1  0.81378000  0.10451000  0.06639000  1
  O  O509  1  0.60853000  0.96473000  0.89454000  1
  O  O510  1  0.71176000  0.00000000  0.00000000  1
  O  O511  1  0.74739000  0.93361000  0.03812000  1
  O  O512  1  0.65534000  0.05428000  0.95324000  1
  O  O513  1  0.80766000  0.05373000  0.10853000  1
  O  O514  1  0.60106000  0.89896000  0.94572000  1
  O  O515  1  0.71399000  0.10546000  0.07019000  1
  O  O516  1  0.64380000  0.92981000  0.03527000  1
  O  O517  1  0.70210000  0.04676000  0.10104000  1
  O  O518  1  0.05428000  0.95324000  0.65534000  1
  O  O519  1  0.10546000  0.07019000  0.71399000  1
  O  O520  1  0.96473000  0.89454000  0.60853000  1
  O  O521  1  0.04676000  0.10104000  0.70210000  1
  O  O522  1  0.05480000  0.94627000  0.75393000  1
  O  O523  1  0.89896000  0.94572000  0.60106000  1
  O  O524  1  0.10451000  0.06639000  0.81378000  1
  O  O525  1  1.00000000  1.00000000  0.71176000  1
  O  O526  1  0.92981000  0.03527000  0.64380000  1
  O  O527  1  0.96188000  0.89549000  0.70927000  1
  O  O528  1  0.05373000  0.10853000  0.80766000  1
  O  O529  1  0.89147000  0.94520000  0.69913000  1
  O  O530  1  0.93361000  0.03812000  0.74739000  1
  O  O531  1  0.30087000  0.24607000  0.19234000  1
  O  O532  1  0.03527000  0.64380000  0.92981000  1
  O  O533  1  0.03812000  0.74739000  0.93361000  1
  O  O534  1  0.39894000  0.34466000  0.29790000  1
  O  O535  1  0.35620000  0.39147000  0.28601000  1
  O  O536  1  0.25261000  0.29073000  0.18622000  1
  O  O537  1  0.10853000  0.80766000  0.05373000  1
  O  O538  1  0.10104000  0.70210000  0.04676000  1
  O  O539  1  0.94520000  0.69913000  0.89147000  1
  O  O540  1  0.94572000  0.60106000  0.89896000  1
  O  O541  1  0.29073000  0.18622000  0.25261000  1
  O  O542  1  0.39147000  0.28601000  0.35620000  1
  O  O543  1  0.28824000  0.28824000  0.28824000  1
