# generated using pymatgen
data_CuH15C15N3O2
_symmetry_space_group_name_H-M   'P 1'
_cell_length_a   13.75610000
_cell_length_b   13.75610000
_cell_length_c   25.53060000
_cell_angle_alpha   90.00000000
_cell_angle_beta   90.00000000
_cell_angle_gamma   90.00000000
_symmetry_Int_Tables_number   1
_chemical_formula_structural   CuH15C15N3O2
_chemical_formula_sum   'Cu8 H120 C120 N24 O16'
_cell_volume   4831.16277064
_cell_formula_units_Z   8
loop_
 _symmetry_equiv_pos_site_id
 _symmetry_equiv_pos_as_xyz
  1  'x, y, z'
loop_
 _atom_site_type_symbol
 _atom_site_label
 _atom_site_symmetry_multiplicity
 _atom_site_fract_x
 _atom_site_fract_y
 _atom_site_fract_z
 _atom_site_occupancy
  Cu  Cu0  1  0.09339000  0.24926000  0.52373000  1
  Cu  Cu1  1  0.24926000  0.90661000  0.47627000  1
  Cu  Cu2  1  0.25074000  0.40661000  0.97627000  1
  Cu  Cu3  1  0.40661000  0.74926000  0.02373000  1
  Cu  Cu4  1  0.59339000  0.25074000  0.02373000  1
  Cu  Cu5  1  0.74926000  0.59339000  0.97627000  1
  Cu  Cu6  1  0.75074000  0.09339000  0.47627000  1
  Cu  Cu7  1  0.90661000  0.75074000  0.52373000  1
  H  H8  1  0.01770000  0.11620000  0.35500000  1
  H  H9  1  0.02680000  0.80810000  0.93820000  1
  H  H10  1  0.03850000  0.65400000  0.78000000  1
  H  H11  1  0.04610000  0.25660000  0.40030000  1
  H  H12  1  0.04670000  0.08610000  0.07110000  1
  H  H13  1  0.05500000  0.76660000  0.05420000  1
  H  H14  1  0.05630000  0.91910000  0.60540000  1
  H  H15  1  0.05720000  0.33510000  0.95290000  1
  H  H16  1  0.05740000  0.30680000  0.71340000  1
  H  H17  1  0.06730000  0.64850000  0.87270000  1
  H  H18  1  0.07470000  0.63270000  0.55270000  1
  H  H19  1  0.08090000  0.05630000  0.39460000  1
  H  H20  1  0.08610000  0.95330000  0.92890000  1
  H  H21  1  0.11620000  0.98230000  0.64500000  1
  H  H22  1  0.12140000  0.24430000  0.63790000  1
  H  H23  1  0.13020000  0.13340000  0.35800000  1
  H  H24  1  0.13270000  0.57470000  0.94730000  1
  H  H25  1  0.13340000  0.86980000  0.64200000  1
  H  H26  1  0.14850000  0.56730000  0.62730000  1
  H  H27  1  0.15400000  0.53850000  0.72000000  1
  H  H28  1  0.16490000  0.44280000  0.54710000  1
  H  H29  1  0.19190000  0.02680000  0.06180000  1
  H  H30  1  0.19320000  0.44260000  0.78660000  1
  H  H31  1  0.19710000  0.20270000  0.44290000  1
  H  H32  1  0.19740000  0.69980000  0.04140000  1
  H  H33  1  0.19980000  0.69740000  0.45860000  1
  H  H34  1  0.20270000  0.80290000  0.55710000  1
  H  H35  1  0.23340000  0.05500000  0.94580000  1
  H  H36  1  0.24340000  0.45390000  0.09970000  1
  H  H37  1  0.24430000  0.87860000  0.36210000  1
  H  H38  1  0.25570000  0.37860000  0.86210000  1
  H  H39  1  0.25660000  0.95390000  0.59970000  1
  H  H40  1  0.26660000  0.55500000  0.44580000  1
  H  H41  1  0.29730000  0.30290000  0.05710000  1
  H  H42  1  0.30020000  0.19740000  0.95860000  1
  H  H43  1  0.30260000  0.19980000  0.54140000  1
  H  H44  1  0.30290000  0.70270000  0.94290000  1
  H  H45  1  0.30680000  0.94260000  0.28660000  1
  H  H46  1  0.30810000  0.52680000  0.56180000  1
  H  H47  1  0.33510000  0.94280000  0.04710000  1
  H  H48  1  0.34600000  0.03850000  0.22000000  1
  H  H49  1  0.35150000  0.06730000  0.12730000  1
  H  H50  1  0.36660000  0.36980000  0.14200000  1
  H  H51  1  0.36730000  0.07470000  0.44730000  1
  H  H52  1  0.36980000  0.63340000  0.85800000  1
  H  H53  1  0.37860000  0.74430000  0.13790000  1
  H  H54  1  0.38380000  0.48230000  0.14500000  1
  H  H55  1  0.41390000  0.45330000  0.42890000  1
  H  H56  1  0.41910000  0.55630000  0.89460000  1
  H  H57  1  0.42530000  0.13270000  0.05270000  1
  H  H58  1  0.43270000  0.14850000  0.37270000  1
  H  H59  1  0.44260000  0.80680000  0.21340000  1
  H  H60  1  0.44280000  0.83510000  0.45290000  1
  H  H61  1  0.44370000  0.41910000  0.10540000  1
  H  H62  1  0.44500000  0.26660000  0.55420000  1
  H  H63  1  0.45330000  0.58610000  0.57110000  1
  H  H64  1  0.45390000  0.75660000  0.90030000  1
  H  H65  1  0.46150000  0.15400000  0.28000000  1
  H  H66  1  0.47320000  0.30810000  0.43820000  1
  H  H67  1  0.48230000  0.61620000  0.85500000  1
  H  H68  1  0.51770000  0.38380000  0.85500000  1
  H  H69  1  0.52680000  0.69190000  0.43820000  1
  H  H70  1  0.53850000  0.84600000  0.28000000  1
  H  H71  1  0.54610000  0.24340000  0.90030000  1
  H  H72  1  0.54670000  0.41390000  0.57110000  1
  H  H73  1  0.55500000  0.73340000  0.55420000  1
  H  H74  1  0.55630000  0.58090000  0.10540000  1
  H  H75  1  0.55720000  0.16490000  0.45290000  1
  H  H76  1  0.55740000  0.19320000  0.21340000  1
  H  H77  1  0.56730000  0.85150000  0.37270000  1
  H  H78  1  0.57470000  0.86730000  0.05270000  1
  H  H79  1  0.58090000  0.44370000  0.89460000  1
  H  H80  1  0.58610000  0.54670000  0.42890000  1
  H  H81  1  0.61620000  0.51770000  0.14500000  1
  H  H82  1  0.62140000  0.25570000  0.13790000  1
  H  H83  1  0.63020000  0.36660000  0.85800000  1
  H  H84  1  0.63270000  0.92530000  0.44730000  1
  H  H85  1  0.63340000  0.63020000  0.14200000  1
  H  H86  1  0.64850000  0.93270000  0.12730000  1
  H  H87  1  0.65400000  0.96150000  0.22000000  1
  H  H88  1  0.66490000  0.05720000  0.04710000  1
  H  H89  1  0.69190000  0.47320000  0.56180000  1
  H  H90  1  0.69320000  0.05740000  0.28660000  1
  H  H91  1  0.69710000  0.29730000  0.94290000  1
  H  H92  1  0.69740000  0.80020000  0.54140000  1
  H  H93  1  0.69980000  0.80260000  0.95860000  1
  H  H94  1  0.70270000  0.69710000  0.05710000  1
  H  H95  1  0.73340000  0.44500000  0.44580000  1
  H  H96  1  0.74340000  0.04610000  0.59970000  1
  H  H97  1  0.74430000  0.62140000  0.86210000  1
  H  H98  1  0.75570000  0.12140000  0.36210000  1
  H  H99  1  0.75660000  0.54610000  0.09970000  1
  H  H100  1  0.76660000  0.94500000  0.94580000  1
  H  H101  1  0.79730000  0.19710000  0.55710000  1
  H  H102  1  0.80020000  0.30260000  0.45860000  1
  H  H103  1  0.80260000  0.30020000  0.04140000  1
  H  H104  1  0.80290000  0.79730000  0.44290000  1
  H  H105  1  0.80680000  0.55740000  0.78660000  1
  H  H106  1  0.80810000  0.97320000  0.06180000  1
  H  H107  1  0.83510000  0.55720000  0.54710000  1
  H  H108  1  0.84600000  0.46150000  0.72000000  1
  H  H109  1  0.85150000  0.43270000  0.62730000  1
  H  H110  1  0.86660000  0.13020000  0.64200000  1
  H  H111  1  0.86730000  0.42530000  0.94730000  1
  H  H112  1  0.86980000  0.86660000  0.35800000  1
  H  H113  1  0.87860000  0.75570000  0.63790000  1
  H  H114  1  0.88380000  0.01770000  0.64500000  1
  H  H115  1  0.91390000  0.04670000  0.92890000  1
  H  H116  1  0.91910000  0.94370000  0.39460000  1
  H  H117  1  0.92530000  0.36730000  0.55270000  1
  H  H118  1  0.93270000  0.35150000  0.87270000  1
  H  H119  1  0.94260000  0.69320000  0.71340000  1
  H  H120  1  0.94280000  0.66490000  0.95290000  1
  H  H121  1  0.94370000  0.08090000  0.60540000  1
  H  H122  1  0.94500000  0.23340000  0.05420000  1
  H  H123  1  0.95330000  0.91390000  0.07110000  1
  H  H124  1  0.95390000  0.74340000  0.40030000  1
  H  H125  1  0.96150000  0.34600000  0.78000000  1
  H  H126  1  0.97320000  0.19190000  0.93820000  1
  H  H127  1  0.98230000  0.88380000  0.35500000  1
  C  C128  1  0.00740000  0.95380000  0.06720000  1
  C  C129  1  0.02800000  0.31990000  0.68140000  1
  C  C130  1  0.03950000  0.82890000  0.45130000  1
  C  C131  1  0.04040000  0.19140000  0.94210000  1
  C  C132  1  0.04620000  0.00740000  0.93280000  1
  C  C133  1  0.04800000  0.64500000  0.58560000  1
  C  C134  1  0.05680000  0.62270000  0.67900000  1
  C  C135  1  0.05750000  0.19520000  0.41880000  1
  C  C136  1  0.06660000  0.28370000  0.63570000  1
  C  C137  1  0.07300000  0.11840000  0.37790000  1
  C  C138  1  0.08300000  0.60420000  0.77450000  1
  C  C139  1  0.09190000  0.27710000  0.95180000  1
  C  C140  1  0.09310000  0.60550000  0.63090000  1
  C  C141  1  0.09430000  0.10310000  0.93850000  1
  C  C142  1  0.10310000  0.90570000  0.06150000  1
  C  C143  1  0.10420000  0.58300000  0.72550000  1
  C  C144  1  0.10550000  0.59310000  0.86910000  1
  C  C145  1  0.11030000  0.80550000  0.05340000  1
  C  C146  1  0.11840000  0.92700000  0.62210000  1
  C  C147  1  0.12270000  0.55680000  0.82100000  1
  C  C148  1  0.14500000  0.54800000  0.91440000  1
  C  C149  1  0.17110000  0.03950000  0.54870000  1
  C  C150  1  0.18010000  0.47200000  0.81860000  1
  C  C151  1  0.19140000  0.95960000  0.05790000  1
  C  C152  1  0.19450000  0.11030000  0.94660000  1
  C  C153  1  0.19520000  0.94250000  0.58120000  1
  C  C154  1  0.19580000  0.76700000  0.04490000  1
  C  C155  1  0.21630000  0.43340000  0.86430000  1
  C  C156  1  0.22290000  0.40810000  0.54820000  1
  C  C157  1  0.23300000  0.19580000  0.95510000  1
  C  C158  1  0.26700000  0.69580000  0.45510000  1
  C  C159  1  0.27710000  0.90810000  0.04820000  1
  C  C160  1  0.28370000  0.93340000  0.36430000  1
  C  C161  1  0.30420000  0.26700000  0.54490000  1
  C  C162  1  0.30480000  0.44250000  0.08120000  1
  C  C163  1  0.30550000  0.61030000  0.44660000  1
  C  C164  1  0.30860000  0.45960000  0.55790000  1
  C  C165  1  0.31990000  0.97200000  0.31860000  1
  C  C166  1  0.32890000  0.53950000  0.04870000  1
  C  C167  1  0.35500000  0.04800000  0.41440000  1
  C  C168  1  0.37730000  0.05680000  0.32100000  1
  C  C169  1  0.38160000  0.42700000  0.12210000  1
  C  C170  1  0.38970000  0.30550000  0.55340000  1
  C  C171  1  0.39450000  0.09310000  0.36910000  1
  C  C172  1  0.39580000  0.08300000  0.22550000  1
  C  C173  1  0.39690000  0.40570000  0.56150000  1
  C  C174  1  0.40570000  0.60310000  0.43850000  1
  C  C175  1  0.40690000  0.10550000  0.13090000  1
  C  C176  1  0.40810000  0.77710000  0.45180000  1
  C  C177  1  0.41700000  0.10420000  0.27450000  1
  C  C178  1  0.42700000  0.61840000  0.87790000  1
  C  C179  1  0.43340000  0.78370000  0.13570000  1
  C  C180  1  0.44250000  0.69520000  0.91880000  1
  C  C181  1  0.44320000  0.12270000  0.17900000  1
  C  C182  1  0.45200000  0.14500000  0.08560000  1
  C  C183  1  0.45380000  0.50740000  0.43280000  1
  C  C184  1  0.45960000  0.69140000  0.44210000  1
  C  C185  1  0.46050000  0.32890000  0.95130000  1
  C  C186  1  0.47200000  0.81990000  0.18140000  1
  C  C187  1  0.49260000  0.45380000  0.56720000  1
  C  C188  1  0.50740000  0.54620000  0.56720000  1
  C  C189  1  0.52800000  0.18010000  0.18140000  1
  C  C190  1  0.53950000  0.67110000  0.95130000  1
  C  C191  1  0.54040000  0.30860000  0.44210000  1
  C  C192  1  0.54620000  0.49260000  0.43280000  1
  C  C193  1  0.54800000  0.85500000  0.08560000  1
  C  C194  1  0.55680000  0.87730000  0.17900000  1
  C  C195  1  0.55750000  0.30480000  0.91880000  1
  C  C196  1  0.56660000  0.21630000  0.13570000  1
  C  C197  1  0.57300000  0.38160000  0.87790000  1
  C  C198  1  0.58300000  0.89580000  0.27450000  1
  C  C199  1  0.59190000  0.22290000  0.45180000  1
  C  C200  1  0.59310000  0.89450000  0.13090000  1
  C  C201  1  0.59430000  0.39690000  0.43850000  1
  C  C202  1  0.60310000  0.59430000  0.56150000  1
  C  C203  1  0.60420000  0.91700000  0.22550000  1
  C  C204  1  0.60550000  0.90690000  0.36910000  1
  C  C205  1  0.61030000  0.69450000  0.55340000  1
  C  C206  1  0.61840000  0.57300000  0.12210000  1
  C  C207  1  0.62270000  0.94320000  0.32100000  1
  C  C208  1  0.64500000  0.95200000  0.41440000  1
  C  C209  1  0.67110000  0.46050000  0.04870000  1
  C  C210  1  0.68010000  0.02800000  0.31860000  1
  C  C211  1  0.69140000  0.54040000  0.55790000  1
  C  C212  1  0.69450000  0.38970000  0.44660000  1
  C  C213  1  0.69520000  0.55750000  0.08120000  1
  C  C214  1  0.69580000  0.73300000  0.54490000  1
  C  C215  1  0.71630000  0.06660000  0.36430000  1
  C  C216  1  0.72290000  0.09190000  0.04820000  1
  C  C217  1  0.73300000  0.30420000  0.45510000  1
  C  C218  1  0.76700000  0.80420000  0.95510000  1
  C  C219  1  0.77710000  0.59190000  0.54820000  1
  C  C220  1  0.78370000  0.56660000  0.86430000  1
  C  C221  1  0.80420000  0.23300000  0.04490000  1
  C  C222  1  0.80480000  0.05750000  0.58120000  1
  C  C223  1  0.80550000  0.88970000  0.94660000  1
  C  C224  1  0.80860000  0.04040000  0.05790000  1
  C  C225  1  0.81990000  0.52800000  0.81860000  1
  C  C226  1  0.82890000  0.96050000  0.54870000  1
  C  C227  1  0.85500000  0.45200000  0.91440000  1
  C  C228  1  0.87730000  0.44320000  0.82100000  1
  C  C229  1  0.88160000  0.07300000  0.62210000  1
  C  C230  1  0.88970000  0.19450000  0.05340000  1
  C  C231  1  0.89450000  0.40690000  0.86910000  1
  C  C232  1  0.89580000  0.41700000  0.72550000  1
  C  C233  1  0.89690000  0.09430000  0.06150000  1
  C  C234  1  0.90570000  0.89690000  0.93850000  1
  C  C235  1  0.90690000  0.39450000  0.63090000  1
  C  C236  1  0.90810000  0.72290000  0.95180000  1
  C  C237  1  0.91700000  0.39580000  0.77450000  1
  C  C238  1  0.92700000  0.88160000  0.37790000  1
  C  C239  1  0.93340000  0.71630000  0.63570000  1
  C  C240  1  0.94250000  0.80480000  0.41880000  1
  C  C241  1  0.94320000  0.37730000  0.67900000  1
  C  C242  1  0.95200000  0.35500000  0.58560000  1
  C  C243  1  0.95380000  0.99260000  0.93280000  1
  C  C244  1  0.95960000  0.80860000  0.94210000  1
  C  C245  1  0.96050000  0.17110000  0.45130000  1
  C  C246  1  0.97200000  0.68010000  0.68140000  1
  C  C247  1  0.99260000  0.04620000  0.06720000  1
  N  N248  1  0.03040000  0.30160000  0.58920000  1
  N  N249  1  0.13740000  0.20980000  0.45200000  1
  N  N250  1  0.18730000  0.28090000  0.95950000  1
  N  N251  1  0.19840000  0.46960000  0.91080000  1
  N  N252  1  0.20980000  0.86260000  0.54800000  1
  N  N253  1  0.21910000  0.31270000  0.54050000  1
  N  N254  1  0.28090000  0.81270000  0.04050000  1
  N  N255  1  0.29020000  0.36260000  0.04800000  1
  N  N256  1  0.30160000  0.96960000  0.41080000  1
  N  N257  1  0.31270000  0.78090000  0.45950000  1
  N  N258  1  0.36260000  0.70980000  0.95200000  1
  N  N259  1  0.46960000  0.80160000  0.08920000  1
  N  N260  1  0.53040000  0.19840000  0.08920000  1
  N  N261  1  0.63740000  0.29020000  0.95200000  1
  N  N262  1  0.68730000  0.21910000  0.45950000  1
  N  N263  1  0.69840000  0.03040000  0.41080000  1
  N  N264  1  0.70980000  0.63740000  0.04800000  1
  N  N265  1  0.71910000  0.18730000  0.04050000  1
  N  N266  1  0.78090000  0.68730000  0.54050000  1
  N  N267  1  0.79020000  0.13740000  0.54800000  1
  N  N268  1  0.80160000  0.53040000  0.91080000  1
  N  N269  1  0.81270000  0.71910000  0.95950000  1
  N  N270  1  0.86260000  0.79020000  0.45200000  1
  N  N271  1  0.96960000  0.69840000  0.58920000  1
  O  O272  1  0.03030000  0.79830000  0.49930000  1
  O  O273  1  0.10940000  0.86390000  0.43180000  1
  O  O274  1  0.13610000  0.10940000  0.56820000  1
  O  O275  1  0.20170000  0.03030000  0.50070000  1
  O  O276  1  0.29830000  0.53030000  0.00070000  1
  O  O277  1  0.36390000  0.60940000  0.06820000  1
  O  O278  1  0.39060000  0.36390000  0.93180000  1
  O  O279  1  0.46970000  0.29830000  0.99930000  1
  O  O280  1  0.53030000  0.70170000  0.99930000  1
  O  O281  1  0.60940000  0.63610000  0.93180000  1
  O  O282  1  0.63610000  0.39060000  0.06820000  1
  O  O283  1  0.70170000  0.46970000  0.00070000  1
  O  O284  1  0.79830000  0.96970000  0.50070000  1
  O  O285  1  0.86390000  0.89060000  0.56820000  1
  O  O286  1  0.89060000  0.13610000  0.43180000  1
  O  O287  1  0.96970000  0.20170000  0.49930000  1
