# generated using pymatgen
data_NiH6(C7O3)2
_symmetry_space_group_name_H-M   'P 1'
_cell_length_a   8.52400000
_cell_length_b   17.21390000
_cell_length_c   17.21390000
_cell_angle_alpha   120.00000000
_cell_angle_beta   90.00000000
_cell_angle_gamma   90.00000000
_symmetry_Int_Tables_number   1
_chemical_formula_structural   NiH6(C7O3)2
_chemical_formula_sum   'Ni3 H18 C42 O18'
_cell_volume   2187.42224396
_cell_formula_units_Z   3
loop_
 _symmetry_equiv_pos_site_id
 _symmetry_equiv_pos_as_xyz
  1  'x, y, z'
loop_
 _atom_site_type_symbol
 _atom_site_label
 _atom_site_symmetry_multiplicity
 _atom_site_fract_x
 _atom_site_fract_y
 _atom_site_fract_z
 _atom_site_occupancy
  Ni  Ni0  1  1.00000000  1.00000000  0.47466000  1
  Ni  Ni1  1  0.33333333  0.52534000  0.52534000  1
  Ni  Ni2  1  0.66666667  0.47466000  0.00000000  1
  H  H3  1  0.00387000  0.76550000  0.46640000  1
  H  H4  1  0.11927000  0.11400000  0.30650000  1
  H  H5  1  0.13597000  0.95610000  0.76400000  1
  H  H6  1  0.19737000  0.19210000  0.23600000  1
  H  H7  1  0.21407000  0.80750000  0.69350000  1
  H  H8  1  0.32947000  0.29910000  0.53360000  1
  H  H9  1  0.33720000  0.53360000  0.29910000  1
  H  H10  1  0.45260000  0.69350000  0.80750000  1
  H  H11  1  0.46930000  0.23600000  0.19210000  1
  H  H12  1  0.53070000  0.76400000  0.95610000  1
  H  H13  1  0.54740000  0.30650000  0.11400000  1
  H  H14  1  0.66280000  0.46640000  0.76550000  1
  H  H15  1  0.67053000  0.70090000  0.23450000  1
  H  H16  1  0.78593000  0.19250000  0.88600000  1
  H  H17  1  0.80263000  0.80790000  0.04390000  1
  H  H18  1  0.86403000  0.04390000  0.80790000  1
  H  H19  1  0.88073000  0.88600000  0.19250000  1
  H  H20  1  0.99613000  0.23450000  0.70090000  1
  C  C21  1  0.01693000  0.10707000  0.67567000  1
  C  C22  1  0.02497000  0.95208000  0.65808000  1
  C  C23  1  0.03047000  0.80392000  0.52610000  1
  C  C24  1  0.11017000  0.91810000  0.70400000  1
  C  C25  1  0.11817000  0.77184000  0.57266000  1
  C  C26  1  0.15707000  0.82890000  0.66207000  1
  C  C27  1  0.16437000  0.14948000  0.47358000  1
  C  C28  1  0.16897000  0.67590000  0.52642000  1
  C  C29  1  0.17627000  0.16683000  0.33793000  1
  C  C30  1  0.21517000  0.19918000  0.42734000  1
  C  C31  1  0.22317000  0.21410000  0.29600000  1
  C  C32  1  0.30287000  0.27782000  0.47390000  1
  C  C33  1  0.30837000  0.29400000  0.34192000  1
  C  C34  1  0.31640000  0.43140000  0.32433000  1
  C  C35  1  0.35027000  0.32433000  0.43140000  1
  C  C36  1  0.35830000  0.34192000  0.29400000  1
  C  C37  1  0.36380000  0.47390000  0.27782000  1
  C  C38  1  0.44350000  0.29600000  0.21410000  1
  C  C39  1  0.45150000  0.42734000  0.19918000  1
  C  C40  1  0.49040000  0.33793000  0.16683000  1
  C  C41  1  0.49770000  0.52642000  0.67590000  1
  C  C42  1  0.50230000  0.47358000  0.14948000  1
  C  C43  1  0.50960000  0.66207000  0.82890000  1
  C  C44  1  0.54850000  0.57266000  0.77184000  1
  C  C45  1  0.55650000  0.70400000  0.91810000  1
  C  C46  1  0.63620000  0.52610000  0.80392000  1
  C  C47  1  0.64170000  0.65808000  0.95208000  1
  C  C48  1  0.64973000  0.67567000  0.10707000  1
  C  C49  1  0.68360000  0.56860000  0.89293000  1
  C  C50  1  0.69163000  0.70600000  0.04792000  1
  C  C51  1  0.69713000  0.72218000  0.19608000  1
  C  C52  1  0.77683000  0.78590000  0.08190000  1
  C  C53  1  0.78483000  0.80082000  0.22816000  1
  C  C54  1  0.82373000  0.83317000  0.17110000  1
  C  C55  1  0.83103000  0.32410000  0.85052000  1
  C  C56  1  0.83563000  0.85052000  0.32410000  1
  C  C57  1  0.84293000  0.17110000  0.83317000  1
  C  C58  1  0.88183000  0.22816000  0.80082000  1
  C  C59  1  0.88983000  0.08190000  0.78590000  1
  C  C60  1  0.96953000  0.19608000  0.72218000  1
  C  C61  1  0.97503000  0.04792000  0.70600000  1
  C  C62  1  0.98307000  0.89293000  0.56860000  1
  O  O63  1  0.09317000  0.07749000  0.42865000  1
  O  O64  1  0.10423000  0.07668000  0.59945000  1
  O  O65  1  0.13737000  0.62765000  0.44268000  1
  O  O66  1  0.19597000  0.18497000  0.55732000  1
  O  O67  1  0.22910000  0.47723000  0.40055000  1
  O  O68  1  0.24017000  0.64884000  0.57135000  1
  O  O69  1  0.42650000  0.57135000  0.64884000  1
  O  O70  1  0.43757000  0.40055000  0.47723000  1
  O  O71  1  0.47070000  0.55732000  0.18497000  1
  O  O72  1  0.52930000  0.44268000  0.62765000  1
  O  O73  1  0.56243000  0.59945000  0.07668000  1
  O  O74  1  0.57350000  0.42865000  0.07749000  1
  O  O75  1  0.75983000  0.35116000  0.92251000  1
  O  O76  1  0.77090000  0.52277000  0.92332000  1
  O  O77  1  0.80403000  0.81503000  0.37235000  1
  O  O78  1  0.86263000  0.37235000  0.81503000  1
  O  O79  1  0.89577000  0.92332000  0.52277000  1
  O  O80  1  0.90683000  0.92251000  0.35116000  1
