# generated using pymatgen
data_Mn3H39C42N8O9
_symmetry_space_group_name_H-M   'P 1'
_cell_length_a   17.41320000
_cell_length_b   30.00580000
_cell_length_c   30.00579093
_cell_angle_alpha   85.17029918
_cell_angle_beta   73.13225710
_cell_angle_gamma   73.13220000
_symmetry_Int_Tables_number   1
_chemical_formula_structural   Mn3H39C42N8O9
_chemical_formula_sum   'Mn24 H312 C336 N64 O72'
_cell_volume   14357.93004393
_cell_formula_units_Z   8
loop_
 _symmetry_equiv_pos_site_id
 _symmetry_equiv_pos_as_xyz
  1  'x, y, z'
loop_
 _atom_site_type_symbol
 _atom_site_label
 _atom_site_symmetry_multiplicity
 _atom_site_fract_x
 _atom_site_fract_y
 _atom_site_fract_z
 _atom_site_occupancy
  Mn  Mn0  1  0.58729000  0.41596000  0.35722000  1
  Mn  Mn1  1  0.28417000  0.92077000  0.50181000  1
  Mn  Mn2  1  0.25260000  0.62052000  0.52894000  1
  Mn  Mn3  1  0.62688000  0.47106000  0.12052000  1
  Mn  Mn4  1  0.29506000  0.49819000  0.42077000  1
  Mn  Mn5  1  0.78598000  0.99819000  0.92077000  1
  Mn  Mn6  1  0.70675000  0.57923000  0.99819000  1
  Mn  Mn7  1  0.05549000  0.85722000  0.58404000  1
  Mn  Mn8  1  0.59794000  0.12052000  0.02894000  1
  Mn  Mn9  1  0.21846000  0.02894000  0.37948000  1
  Mn  Mn10  1  0.50325000  0.35722000  0.08404000  1
  Mn  Mn11  1  0.36047000  0.08404000  0.14278000  1
  Mn  Mn12  1  0.63953000  0.91596000  0.85722000  1
  Mn  Mn13  1  0.49675000  0.64278000  0.91596000  1
  Mn  Mn14  1  0.78154000  0.97106000  0.62052000  1
  Mn  Mn15  1  0.40206000  0.87948000  0.97106000  1
  Mn  Mn16  1  0.94451000  0.14278000  0.41596000  1
  Mn  Mn17  1  0.29325000  0.42077000  0.00181000  1
  Mn  Mn18  1  0.21402000  0.00181000  0.07923000  1
  Mn  Mn19  1  0.70494000  0.50181000  0.57923000  1
  Mn  Mn20  1  0.37312000  0.52894000  0.87948000  1
  Mn  Mn21  1  0.74740000  0.37948000  0.47106000  1
  Mn  Mn22  1  0.71583000  0.07923000  0.49819000  1
  Mn  Mn23  1  0.41271000  0.58404000  0.64278000  1
  H  H24  1  0.89440000  0.20790000  0.10550000  1
  H  H25  1  0.35730000  0.97790000  0.63790000  1
  H  H26  1  0.67760000  0.20980000  0.31160000  1
  H  H27  1  0.83580000  0.06580000  0.15100000  1
  H  H28  1  0.48150000  0.41340000  0.49720000  1
  H  H29  1  0.99520000  0.86210000  0.97790000  1
  H  H30  1  0.06410000  0.97860000  0.90860000  1
  H  H31  1  0.83690000  0.17480000  0.12960000  1
  H  H32  1  0.50650000  0.37440000  0.45840000  1
  H  H33  1  0.42860000  0.35650000  0.53470000  1
  H  H34  1  0.40530000  0.47290000  0.55770000  1
  H  H35  1  0.85370000  0.35700000  0.10920000  1
  H  H36  1  0.76590000  0.42080000  0.18640000  1
  H  H37  1  0.58520000  0.15790000  0.36690000  1
  H  H38  1  0.97270000  0.59140000  0.97860000  1
  H  H39  1  0.10830000  0.56000000  0.84160000  1
  H  H40  1  0.01320000  0.65100000  0.93420000  1
  H  H41  1  0.92190000  0.47960000  0.01680000  1
  H  H42  1  0.37140000  0.84890000  0.56710000  1
  H  H43  1  0.45730000  0.09140000  0.47860000  1
  H  H44  1  0.50070000  0.72740000  0.42760000  1
  H  H45  1  0.30010000  0.45910000  0.62570000  1
  H  H46  1  0.88630000  0.19320000  0.03700000  1
  H  H47  1  0.90150000  0.01680000  0.02040000  1
  H  H48  1  0.48500000  0.80600000  0.42780000  1
  H  H49  1  0.65680000  0.41060000  0.24800000  1
  H  H50  1  0.59920000  0.28430000  0.30310000  1
  H  H51  1  0.41830000  0.02040000  0.48320000  1
  H  H52  1  0.53080000  0.60240000  0.37020000  1
  H  H53  1  0.47950000  0.62580000  0.42000000  1
  H  H54  1  0.60230000  0.10550000  0.29210000  1
  H  H55  1  0.83170000  0.15840000  0.06000000  1
  H  H56  1  0.04790000  0.86690000  0.84210000  1
  H  H57  1  0.22760000  0.57760000  0.66220000  1
  H  H58  1  0.57950000  0.03700000  0.30680000  1
  H  H59  1  0.31740000  0.98040000  0.56880000  1
  H  H60  1  0.39270000  0.34950000  0.49310000  1
  H  H61  1  0.81490000  0.28020000  0.06940000  1
  H  H62  1  0.07670000  0.53700000  0.80680000  1
  H  H63  1  0.47470000  0.54830000  0.40710000  1
  H  H64  1  0.23890000  0.80610000  0.63630000  1
  H  H65  1  0.34910000  0.39490000  0.52550000  1
  H  H66  1  0.33720000  0.50840000  0.53580000  1
  H  H67  1  0.88620000  0.93120000  0.98040000  1
  H  H68  1  0.39090000  0.69730000  0.47110000  1
  H  H69  1  0.03350000  0.62960000  0.82520000  1
  H  H70  1  0.71070000  0.10920000  0.14300000  1
  H  H71  1  0.23340000  0.50700000  0.61960000  1
  H  H72  1  0.25240000  0.46370000  0.58650000  1
  H  H73  1  0.51170000  0.12960000  0.32520000  1
  H  H74  1  0.40160000  0.15100000  0.43420000  1
  H  H75  1  0.11570000  0.56940000  0.71980000  1
  H  H76  1  0.97310000  0.52210000  0.86210000  1
  H  H77  1  0.23800000  0.74580000  0.59460000  1
  H  H78  1  0.49010000  0.06000000  0.34160000  1
  H  H79  1  0.44230000  0.64030000  0.37630000  1
  H  H80  1  0.59510000  0.06940000  0.21980000  1
  H  H81  1  0.09770000  0.80310000  0.71570000  1
  H  H82  1  0.01080000  0.81160000  0.79020000  1
  H  H83  1  0.86660000  0.51960000  0.93120000  1
  H  H84  1  0.00010000  0.60550000  0.79210000  1
  H  H85  1  0.71880000  0.69400000  0.07220000  1
  H  H86  1  0.41390000  0.57320000  0.37600000  1
  H  H87  1  0.93850000  0.93290000  0.84890000  1
  H  H88  1  0.69740000  0.96370000  0.08650000  1
  H  H89  1  0.26650000  0.74810000  0.51070000  1
  H  H90  1  0.69480000  0.33780000  0.07760000  1
  H  H91  1  0.75960000  0.38040000  0.00700000  1
  H  H92  1  0.68670000  0.18640000  0.07920000  1
  H  H93  1  0.11420000  0.99310000  0.65050000  1
  H  H94  1  0.51620000  0.40540000  0.24580000  1
  H  H95  1  0.45500000  0.36370000  0.30610000  1
  H  H96  1  0.64000000  0.00700000  0.11960000  1
  H  H97  1  0.76470000  0.84950000  0.99310000  1
  H  H98  1  0.89000000  0.65790000  0.86690000  1
  H  H99  1  0.73050000  0.89490000  0.02550000  1
  H  H100  1  0.78390000  0.41350000  0.96370000  1
  H  H101  1  0.61510000  0.95910000  0.12570000  1
  H  H102  1  0.48540000  0.48930000  0.24810000  1
  H  H103  1  0.12540000  0.02550000  0.60510000  1
  H  H104  1  0.65570000  0.77260000  0.07240000  1
  H  H105  1  0.78740000  0.65110000  0.93290000  1
  H  H106  1  0.91280000  0.07220000  0.80600000  1
  H  H107  1  0.68020000  0.85650000  0.03470000  1
  H  H108  1  0.31990000  0.14300000  0.39080000  1
  H  H109  1  0.74080000  0.37430000  0.95910000  1
  H  H110  1  0.16110000  0.08650000  0.53630000  1
  H  H111  1  0.53260000  0.07760000  0.16220000  1
  H  H112  1  0.37310000  0.07920000  0.31360000  1
  H  H113  1  0.09520000  0.74800000  0.58940000  1
  H  H114  1  0.20220000  0.43120000  0.48040000  1
  H  H115  1  0.87520000  0.86370000  0.80610000  1
  H  H116  1  0.03670000  0.03470000  0.64350000  1
  H  H117  1  0.03710000  0.60920000  0.64300000  1
  H  H118  1  0.38740000  0.31160000  0.29020000  1
  H  H119  1  0.65440000  0.46420000  0.00840000  1
  H  H120  1  0.03510000  0.95840000  0.62560000  1
  H  H121  1  0.56740000  0.24800000  0.08940000  1
  H  H122  1  0.92830000  0.07240000  0.72740000  1
  H  H123  1  0.61860000  0.00840000  0.03580000  1
  H  H124  1  0.75600000  0.47450000  0.89490000  1
  H  H125  1  0.16480000  0.36210000  0.47790000  1
  H  H126  1  0.14700000  0.11960000  0.49300000  1
  H  H127  1  0.21010000  0.87600000  0.42680000  1
  H  H128  1  0.50340000  0.89760000  0.12980000  1
  H  H129  1  0.27970000  0.43290000  0.34890000  1
  H  H130  1  0.04770000  0.68640000  0.57920000  1
  H  H131  1  0.56410000  0.97290000  0.05770000  1
  H  H132  1  0.66070000  0.87440000  0.95840000  1
  H  H133  1  0.12700000  0.03580000  0.49160000  1
  H  H134  1  0.81340000  0.78430000  0.80310000  1
  H  H135  1  0.07420000  0.12570000  0.54090000  1
  H  H136  1  0.80100000  0.70980000  0.81160000  1
  H  H137  1  0.41180000  0.52890000  0.19730000  1
  H  H138  1  0.02130000  0.99720000  0.58660000  1
  H  H139  1  0.75780000  0.50690000  0.84950000  1
  H  H140  1  0.52530000  0.87420000  0.08000000  1
  H  H141  1  0.60790000  0.91340000  0.99720000  1
  H  H142  1  0.20780000  0.29210000  0.39450000  1
  H  H143  1  0.38350000  0.30310000  0.21570000  1
  H  H144  1  0.94740000  0.56580000  0.65100000  1
  H  H145  1  0.16450000  0.21980000  0.43060000  1
  H  H146  1  0.62180000  0.44230000  0.97290000  1
  H  H147  1  0.55930000  0.80270000  0.02890000  1
  H  H148  1  0.51290000  0.62400000  0.07320000  1
  H  H149  1  0.24310000  0.36690000  0.34210000  1
  H  H150  1  0.45890000  0.85970000  0.12370000  1
  H  H151  1  0.06130000  0.51680000  0.52040000  1
  H  H152  1  0.11650000  0.30680000  0.46300000  1
  H  H153  1  0.83260000  0.90540000  0.74580000  1
  H  H154  1  0.71490000  0.46530000  0.85650000  1
  H  H155  1  0.11820000  0.90710000  0.45170000  1
  H  H156  1  0.31540000  0.08940000  0.25200000  1
  H  H157  1  0.03700000  0.05770000  0.52710000  1
  H  H158  1  0.86200000  0.02890000  0.69730000  1
  H  H159  1  0.41740000  0.62370000  0.14030000  1
  H  H160  1  0.68130000  0.69390000  0.86370000  1
  H  H161  1  0.95130000  0.52140000  0.59140000  1
  H  H162  1  0.18140000  0.87630000  0.35970000  1
  H  H163  1  0.11020000  0.16220000  0.42240000  1
  H  H164  1  0.63320000  0.37020000  0.89760000  1
  H  H165  1  0.77720000  0.98930000  0.74810000  1
  H  H166  1  0.47700000  0.59290000  0.04830000  1
  H  H167  1  0.89950000  0.08000000  0.62580000  1
  H  H168  1  0.43010000  0.95170000  0.09290000  1
  H  H169  1  0.39470000  0.58000000  0.12580000  1
  H  H170  1  0.60510000  0.50280000  0.91340000  1
  H  H171  1  0.42160000  0.24580000  0.09460000  1
  H  H172  1  0.20900000  0.57220000  0.30600000  1
  H  H173  1  0.52530000  0.75190000  0.98930000  1
  H  H174  1  0.63690000  0.07320000  0.87600000  1
  H  H175  1  0.14130000  0.32520000  0.37040000  1
  H  H176  1  0.94990000  0.65840000  0.56000000  1
  H  H177  1  0.38090000  0.45840000  0.12560000  1
  H  H178  1  0.90100000  0.12980000  0.60240000  1
  H  H179  1  0.72810000  0.42760000  0.77260000  1
  H  H180  1  0.27190000  0.57240000  0.22740000  1
  H  H181  1  0.09900000  0.87020000  0.39760000  1
  H  H182  1  0.61910000  0.54160000  0.87440000  1
  H  H183  1  0.05010000  0.34160000  0.44000000  1
  H  H184  1  0.85870000  0.67480000  0.62960000  1
  H  H185  1  0.36310000  0.92680000  0.12400000  1
  H  H186  1  0.47470000  0.24810000  0.01070000  1
  H  H187  1  0.79100000  0.42780000  0.69400000  1
  H  H188  1  0.57840000  0.75420000  0.90540000  1
  H  H189  1  0.39490000  0.49720000  0.08660000  1
  H  H190  1  0.60530000  0.42000000  0.87420000  1
  H  H191  1  0.56990000  0.04830000  0.90710000  1
  H  H192  1  0.10050000  0.92000000  0.37420000  1
  H  H193  1  0.52300000  0.40710000  0.95170000  1
  H  H194  1  0.22280000  0.01070000  0.25190000  1
  H  H195  1  0.36680000  0.62980000  0.10240000  1
  H  H196  1  0.88980000  0.83780000  0.57760000  1
  H  H197  1  0.81860000  0.12370000  0.64030000  1
  H  H198  1  0.04870000  0.47860000  0.40860000  1
  H  H199  1  0.31870000  0.30610000  0.13630000  1
  H  H200  1  0.58260000  0.37630000  0.85970000  1
  H  H201  1  0.13800000  0.97110000  0.30270000  1
  H  H202  1  0.96300000  0.94230000  0.47290000  1
  H  H203  1  0.68460000  0.91060000  0.74800000  1
  H  H204  1  0.88180000  0.09290000  0.54830000  1
  H  H205  1  0.28510000  0.53470000  0.14350000  1
  H  H206  1  0.16740000  0.09460000  0.25420000  1
  H  H207  1  0.88350000  0.69320000  0.53700000  1
  H  H208  1  0.93870000  0.48320000  0.47960000  1
  H  H209  1  0.54110000  0.14030000  0.87630000  1
  H  H210  1  0.75690000  0.63310000  0.65790000  1
  H  H211  1  0.48710000  0.37600000  0.92680000  1
  H  H212  1  0.44070000  0.19730000  0.97110000  1
  H  H213  1  0.37820000  0.55770000  0.02710000  1
  H  H214  1  0.83550000  0.78020000  0.56940000  1
  H  H215  1  0.05260000  0.43420000  0.34900000  1
  H  H216  1  0.61650000  0.69690000  0.78430000  1
  H  H217  1  0.79220000  0.70790000  0.60550000  1
  H  H218  1  0.39210000  0.08660000  0.00280000  1
  H  H219  1  0.47470000  0.12580000  0.92000000  1
  H  H220  1  0.24220000  0.49310000  0.15050000  1
  H  H221  1  0.97870000  0.00280000  0.41340000  1
  H  H222  1  0.58820000  0.47110000  0.80270000  1
  H  H223  1  0.19900000  0.29020000  0.18840000  1
  H  H224  1  0.92580000  0.87430000  0.45910000  1
  H  H225  1  0.18660000  0.21570000  0.19690000  1
  H  H226  1  0.87300000  0.96420000  0.50840000  1
  H  H227  1  0.33930000  0.12560000  0.04160000  1
  H  H228  1  0.43590000  0.02710000  0.94230000  1
  H  H229  1  0.95230000  0.31360000  0.42080000  1
  H  H230  1  0.72030000  0.56710000  0.65110000  1
  H  H231  1  0.49660000  0.10240000  0.87020000  1
  H  H232  1  0.78990000  0.12400000  0.57320000  1
  H  H233  1  0.85300000  0.88040000  0.50700000  1
  H  H234  1  0.83520000  0.63790000  0.52210000  1
  H  H235  1  0.24400000  0.52550000  0.10510000  1
  H  H236  1  0.38140000  0.99160000  0.96420000  1
  H  H237  1  0.07170000  0.92760000  0.27260000  1
  H  H238  1  0.43260000  0.75200000  0.91060000  1
  H  H239  1  0.96490000  0.04160000  0.37440000  1
  H  H240  1  0.34560000  0.53580000  0.99160000  1
  H  H241  1  0.61260000  0.68840000  0.70980000  1
  H  H242  1  0.96290000  0.39080000  0.35700000  1
  H  H243  1  0.96330000  0.96530000  0.35650000  1
  H  H244  1  0.12480000  0.13630000  0.19390000  1
  H  H245  1  0.79780000  0.56880000  0.51960000  1
  H  H246  1  0.90480000  0.25200000  0.41060000  1
  H  H247  1  0.62690000  0.92080000  0.68640000  1
  H  H248  1  0.46740000  0.92240000  0.83780000  1
  H  H249  1  0.83890000  0.91350000  0.46370000  1
  H  H250  1  0.25920000  0.62570000  0.04090000  1
  H  H251  1  0.68010000  0.85700000  0.60920000  1
  H  H252  1  0.31980000  0.14350000  0.96530000  1
  H  H253  1  0.08720000  0.92780000  0.19400000  1
  H  H254  1  0.21260000  0.34890000  0.06710000  1
  H  H255  1  0.34430000  0.22740000  0.92760000  1
  H  H256  1  0.87460000  0.97450000  0.39490000  1
  H  H257  1  0.51460000  0.51070000  0.75190000  1
  H  H258  1  0.38490000  0.04090000  0.87430000  1
  H  H259  1  0.21610000  0.58650000  0.03630000  1
  H  H260  1  0.26950000  0.10510000  0.97450000  1
  H  H261  1  0.11000000  0.34210000  0.13310000  1
  H  H262  1  0.23530000  0.15050000  0.00690000  1
  H  H263  1  0.36000000  0.99300000  0.88040000  1
  H  H264  1  0.54500000  0.63630000  0.69390000  1
  H  H265  1  0.48380000  0.59460000  0.75420000  1
  H  H266  1  0.88580000  0.00690000  0.34950000  1
  H  H267  1  0.31330000  0.81360000  0.92080000  1
  H  H268  1  0.24040000  0.61960000  0.99300000  1
  H  H269  1  0.30520000  0.66220000  0.92240000  1
  H  H270  1  0.73350000  0.25190000  0.48930000  1
  H  H271  1  0.30260000  0.03630000  0.91350000  1
  H  H272  1  0.06150000  0.06710000  0.15110000  1
  H  H273  1  0.58610000  0.42680000  0.62400000  1
  H  H274  1  0.28120000  0.30600000  0.92780000  1
  H  H275  1  0.99990000  0.39450000  0.20790000  1
  H  H276  1  0.13340000  0.48040000  0.06880000  1
  H  H277  1  0.98920000  0.18840000  0.20980000  1
  H  H278  1  0.90230000  0.19690000  0.28430000  1
  H  H279  1  0.40490000  0.93060000  0.78020000  1
  H  H280  1  0.55770000  0.35970000  0.62370000  1
  H  H281  1  0.50990000  0.94000000  0.65840000  1
  H  H282  1  0.76200000  0.25420000  0.40540000  1
  H  H283  1  0.02690000  0.47790000  0.13790000  1
  H  H284  1  0.88430000  0.43060000  0.28020000  1
  H  H285  1  0.59840000  0.84900000  0.56580000  1
  H  H286  1  0.48830000  0.87040000  0.67480000  1
  H  H287  1  0.74760000  0.53630000  0.41350000  1
  H  H288  1  0.76660000  0.49300000  0.38040000  1
  H  H289  1  0.28930000  0.89080000  0.85700000  1
  H  H290  1  0.96650000  0.37040000  0.17480000  1
  H  H291  1  0.60910000  0.30270000  0.52890000  1
  H  H292  1  0.11380000  0.06880000  0.01960000  1
  H  H293  1  0.66280000  0.49160000  0.46420000  1
  H  H294  1  0.65090000  0.60510000  0.47450000  1
  H  H295  1  0.76110000  0.19390000  0.36370000  1
  H  H296  1  0.52530000  0.45170000  0.59290000  1
  H  H297  1  0.92330000  0.46300000  0.19320000  1
  H  H298  1  0.18510000  0.71980000  0.93060000  1
  H  H299  1  0.60730000  0.65050000  0.50690000  1
  H  H300  1  0.68260000  0.01960000  0.43120000  1
  H  H301  1  0.42050000  0.96300000  0.69320000  1
  H  H302  1  0.77240000  0.42240000  0.33780000  1
  H  H303  1  0.95210000  0.13310000  0.15790000  1
  H  H304  1  0.16830000  0.84160000  0.94000000  1
  H  H305  1  0.39770000  0.89450000  0.70790000  1
  H  H306  1  0.52050000  0.37420000  0.58000000  1
  H  H307  1  0.46920000  0.39760000  0.62980000  1
  H  H308  1  0.58170000  0.97960000  0.51680000  1
  H  H309  1  0.40080000  0.71570000  0.69690000  1
  H  H310  1  0.34320000  0.58940000  0.75200000  1
  H  H311  1  0.51500000  0.19400000  0.57220000  1
  H  H312  1  0.09850000  0.98320000  0.97960000  1
  H  H313  1  0.11370000  0.80680000  0.96300000  1
  H  H314  1  0.69990000  0.54090000  0.37430000  1
  H  H315  1  0.49930000  0.27260000  0.57240000  1
  H  H316  1  0.54270000  0.90860000  0.52140000  1
  H  H317  1  0.62860000  0.15110000  0.43290000  1
  H  H318  1  0.07810000  0.52040000  0.98320000  1
  H  H319  1  0.98680000  0.34900000  0.06580000  1
  H  H320  1  0.89170000  0.44000000  0.15840000  1
  H  H321  1  0.02730000  0.40860000  0.02140000  1
  H  H322  1  0.41480000  0.84210000  0.63310000  1
  H  H323  1  0.23410000  0.57920000  0.81360000  1
  H  H324  1  0.14630000  0.64300000  0.89080000  1
  H  H325  1  0.59470000  0.52710000  0.44230000  1
  H  H326  1  0.57140000  0.64350000  0.46530000  1
  H  H327  1  0.49350000  0.62560000  0.54160000  1
  H  H328  1  0.16310000  0.82520000  0.87040000  1
  H  H329  1  0.93590000  0.02140000  0.09140000  1
  H  H330  1  0.00480000  0.13790000  0.02210000  1
  H  H331  1  0.51850000  0.58660000  0.50280000  1
  H  H332  1  0.16420000  0.93420000  0.84900000  1
  H  H333  1  0.32240000  0.79020000  0.68840000  1
  H  H334  1  0.64270000  0.02210000  0.36210000  1
  H  H335  1  0.10560000  0.79210000  0.89450000  1
  C  C336  1  0.02970000  0.58780000  0.96220000  1
  C  C337  1  0.32083000  0.76561000  0.67093000  1
  C  C338  1  0.05400000  0.62230000  0.93530000  1
  C  C339  1  0.36510000  0.95040000  0.62180000  1
  C  C340  1  0.76880000  0.42150000  0.21750000  1
  C  C341  1  0.63428000  0.31572000  0.34752000  1
  C  C342  1  0.60100000  0.12800000  0.38040000  1
  C  C343  1  0.87920000  0.17970000  0.10090000  1
  C  C344  1  0.88250000  0.03780000  0.08780000  1
  C  C345  1  0.59630000  0.09440000  0.36340000  1
  C  C346  1  0.70361000  0.41582000  0.25456000  1
  C  C347  1  0.63319000  0.27877000  0.32385000  1
  C  C348  1  0.86660000  0.38210000  0.08990000  1
  C  C349  1  0.37050000  0.87670000  0.58050000  1
  C  C350  1  0.36457000  0.53858000  0.58608000  1
  C  C351  1  0.82370000  0.06470000  0.12230000  1
  C  C352  1  0.04030000  0.86340000  0.90560000  1
  C  C353  1  0.90710000  0.45420000  0.03500000  1
  C  C354  1  0.45891000  0.39758000  0.47840000  1
  C  C355  1  0.98690000  0.87820000  0.95040000  1
  C  C356  1  0.31632000  0.69311000  0.62045000  1
  C  C357  1  0.16070000  0.57200000  0.77360000  1
  C  C358  1  0.22917000  0.57771000  0.69355000  1
  C  C359  1  0.33930000  0.95100000  0.58160000  1
  C  C360  1  0.35272000  0.49848000  0.56508000  1
  C  C361  1  0.40250000  0.37250000  0.51070000  1
  C  C362  1  0.27129000  0.77528000  0.64014000  1
  C  C363  1  0.84460000  0.18720000  0.06540000  1
  C  C364  1  0.86130000  0.03500000  0.04580000  1
  C  C365  1  0.31044000  0.65702000  0.59370000  1
  C  C366  1  0.09000000  0.56540000  0.81280000  1
  C  C367  1  0.44991000  0.74758000  0.44520000  1
  C  C368  1  0.80251000  0.42250000  0.08868000  1
  C  C369  1  0.01860000  0.88040000  0.87200000  1
  C  C370  1  0.16270000  0.57270000  0.72770000  1
  C  C371  1  0.27096000  0.73933000  0.61595000  1
  C  C372  1  0.44010000  0.79448000  0.44572000  1
  C  C373  1  0.82453000  0.45807000  0.05847000  1
  C  C374  1  0.42030000  0.08780000  0.46220000  1
  C  C375  1  0.27680000  0.48020000  0.60320000  1
  C  C376  1  0.55890000  0.10090000  0.32030000  1
  C  C377  1  0.92090000  0.91840000  0.95100000  1
  C  C378  1  0.74870000  0.08990000  0.11790000  1
  C  C379  1  0.47490000  0.61460000  0.39140000  1
  C  C380  1  0.41779000  0.43371000  0.44711000  1
  C  C381  1  0.39630000  0.04580000  0.46500000  1
  C  C382  1  0.38494000  0.72977000  0.47055000  1
  C  C383  1  0.53180000  0.06540000  0.31280000  1
  C  C384  1  0.01990000  0.60090000  0.82030000  1
  C  C385  1  0.76730000  0.22640000  0.07200000  1
  C  C386  1  0.36797000  0.82594000  0.47112000  1
  C  C387  1  0.76460000  0.27230000  0.07270000  1
  C  C388  1  0.43317000  0.57757000  0.40289000  1
  C  C389  1  0.95100000  0.91950000  0.87670000  1
  C  C390  1  0.78260000  0.05847000  0.04193000  1
  C  C391  1  0.38840000  0.12230000  0.43530000  1
  C  C392  1  0.93730000  0.54960000  0.87820000  1
  C  C393  1  0.76476000  0.50123000  0.05065000  1
  C  C394  1  0.94590000  0.59440000  0.86340000  1
  C  C395  1  0.31199000  0.76020000  0.49482000  1
  C  C396  1  0.35946000  0.58566000  0.44582000  1
  C  C397  1  0.72501000  0.08868000  0.07750000  1
  C  C398  1  0.30145000  0.80636000  0.49734000  1
  C  C399  1  0.87190000  0.54900000  0.91840000  1
  C  C400  1  0.34107000  0.04193000  0.44153000  1
  C  C401  1  0.44045000  0.47339000  0.33611000  1
  C  C402  1  0.89060000  0.62800000  0.88040000  1
  C  C403  1  0.69312000  0.30645000  0.07771000  1
  C  C404  1  0.69030000  0.21750000  0.07850000  1
  C  C405  1  0.49370000  0.07200000  0.27360000  1
  C  C406  1  0.31664000  0.99877000  0.44935000  1
  C  C407  1  0.76599000  0.05065000  0.99877000  1
  C  C408  1  0.53690000  0.07270000  0.22770000  1
  C  C409  1  0.04296000  0.82385000  0.72123000  1
  C  C410  1  0.99176000  0.82907000  0.76561000  1
  C  C411  1  0.22344000  0.83611000  0.52661000  1
  C  C412  1  0.33860000  0.11790000  0.41010000  1
  C  C413  1  0.82770000  0.62330000  0.91950000  1
  C  C414  1  0.63980000  0.98020000  0.10320000  1
  C  C415  1  0.68030000  0.70552000  0.05428000  1
  C  C416  1  0.48971000  0.38405000  0.23933000  1
  C  C417  1  0.45343000  0.35986000  0.27528000  1
  C  C418  1  0.31369000  0.07750000  0.41132000  1
  C  C419  1  0.71430000  0.87250000  0.01070000  1
  C  C420  1  0.74300000  0.39680000  0.98020000  1
  C  C421  1  0.08680000  0.01070000  0.62750000  1
  C  C422  1  0.61943000  0.25456000  0.08418000  1
  C  C423  1  0.01820000  0.84752000  0.68428000  1
  C  C424  1  0.13510000  0.94711000  0.56629000  1
  C  C425  1  0.39219000  0.50266000  0.30636000  1
  C  C426  1  0.64269000  0.75242000  0.05480000  1
  C  C427  1  0.66503000  0.67406000  0.02888000  1
  C  C428  1  0.49957000  0.07771000  0.19355000  1
  C  C429  1  0.40780000  0.07850000  0.28250000  1
  C  C430  1  0.53254000  0.40630000  0.15702000  1
  C  C431  1  0.42781000  0.50518000  0.26020000  1
  C  C432  1  0.91143000  0.85986000  0.77528000  1
  C  C433  1  0.10881000  0.58868000  0.57750000  1
  C  C434  1  0.49057000  0.37955000  0.19311000  1
  C  C435  1  0.18459000  0.55065000  0.49877000  1
  C  C436  1  0.88582000  0.05428000  0.79448000  1
  C  C437  1  0.41356000  0.32907000  0.26561000  1
  C  C438  1  0.06269000  0.97840000  0.60242000  1
  C  C439  1  0.83909000  0.02888000  0.82594000  1
  C  C440  1  0.04350000  0.58990000  0.61790000  1
  C  C441  1  0.20970000  0.41840000  0.45100000  1
  C  C442  1  0.11700000  0.55847000  0.54193000  1
  C  C443  1  0.58372000  0.99848000  0.06508000  1
  C  C444  1  0.70139000  0.93371000  0.94711000  1
  C  C445  1  0.64880000  0.43492000  0.99848000  1
  C  C446  1  0.66511000  0.89758000  0.97840000  1
  C  C447  1  0.89511000  0.05480000  0.74758000  1
  C  C448  1  0.55488000  0.55418000  0.08566000  1
  C  C449  1  0.12000000  0.10320000  0.51980000  1
  C  C450  1  0.59685000  0.41392000  0.03858000  1
  C  C451  1  0.18450000  0.37820000  0.45040000  1
  C  C452  1  0.45000000  0.34752000  0.18428000  1
  C  C453  1  0.41196000  0.32385000  0.22123000  1
  C  C454  1  0.30609000  0.52888000  0.32594000  1
  C  C455  1  0.93677000  0.87955000  0.69311000  1
  C  C456  1  0.25280000  0.41950000  0.37670000  1
  C  C457  1  0.88691000  0.88405000  0.73933000  1
  C  C458  1  0.04183000  0.75456000  0.58418000  1
  C  C459  1  0.37399000  0.08418000  0.24544000  1
  C  C460  1  0.38529000  0.52945000  0.22977000  1
  C  C461  1  0.58526000  0.77023000  0.02945000  1
  C  C462  1  0.98930000  0.56470000  0.62230000  1
  C  C463  1  0.19472000  0.94582000  0.41434000  1
  C  C464  1  0.60515000  0.69364000  0.00266000  1
  C  C465  1  0.79879000  0.00266000  0.80636000  1
  C  C466  1  0.05790000  0.53500000  0.54580000  1
  C  C467  1  0.22900000  0.38040000  0.37200000  1
  C  C468  1  0.72500000  0.48930000  0.87250000  1
  C  C469  1  0.51077000  0.03858000  0.08608000  1
  C  C470  1  0.19070000  0.36340000  0.40560000  1
  C  C471  1  0.01370000  0.71750000  0.57850000  1
  C  C472  1  0.48090000  0.88540000  0.10860000  1
  C  C473  1  0.76419000  0.77877000  0.82385000  1
  C  C474  1  0.75737000  0.73439000  0.82907000  1
  C  C475  1  0.16394000  0.90289000  0.42243000  1
  C  C476  1  0.75005000  0.97339000  0.83611000  1
  C  C477  1  0.85549000  0.02945000  0.72977000  1
  C  C478  1  0.08220000  0.06508000  0.50152000  1
  C  C479  1  0.64850000  0.55289000  0.93371000  1
  C  C480  1  0.99190000  0.53780000  0.58780000  1
  C  C481  1  0.56701000  0.73980000  0.00518000  1
  C  C482  1  0.80681000  0.00518000  0.76020000  1
  C  C483  1  0.48926000  0.59711000  0.07757000  1
  C  C484  1  0.90414000  0.90630000  0.65702000  1
  C  C485  1  0.26542000  0.55428000  0.29448000  1
  C  C486  1  0.58616000  0.66389000  0.97339000  1
  C  C487  1  0.15980000  0.32030000  0.39910000  1
  C  C488  1  0.60906000  0.08566000  0.94582000  1
  C  C489  1  0.30251000  0.55480000  0.24758000  1
  C  C490  1  0.70248000  0.81572000  0.84752000  1
  C  C491  1  0.68671000  0.72472000  0.85986000  1
  C  C492  1  0.64351000  0.52160000  0.89758000  1
  C  C493  1  0.10960000  0.22770000  0.42730000  1
  C  C494  1  0.43884000  0.15702000  0.09370000  1
  C  C495  1  0.09720000  0.31280000  0.43460000  1
  C  C496  1  0.41050000  0.60860000  0.11460000  1
  C  C497  1  0.13370000  0.89140000  0.38540000  1
  C  C498  1  0.04935000  0.08608000  0.46142000  1
  C  C499  1  0.41363000  0.92243000  0.09711000  1
  C  C500  1  0.62624000  0.76067000  0.88405000  1
  C  C501  1  0.62988000  0.80689000  0.87955000  1
  C  C502  1  0.93430000  0.72640000  0.57200000  1
  C  C503  1  0.92272000  0.80645000  0.57771000  1
  C  C504  1  0.07728000  0.19355000  0.42229000  1
  C  C505  1  0.06570000  0.27360000  0.42800000  1
  C  C506  1  0.37012000  0.19311000  0.12045000  1
  C  C507  1  0.37376000  0.23933000  0.11595000  1
  C  C508  1  0.58637000  0.07757000  0.90289000  1
  C  C509  1  0.95065000  0.91392000  0.53858000  1
  C  C510  1  0.86630000  0.10860000  0.61460000  1
  C  C511  1  0.58950000  0.39140000  0.88540000  1
  C  C512  1  0.90280000  0.68720000  0.56540000  1
  C  C513  1  0.56116000  0.84298000  0.90630000  1
  C  C514  1  0.89040000  0.77230000  0.57270000  1
  C  C515  1  0.35649000  0.47840000  0.10242000  1
  C  C516  1  0.31329000  0.27528000  0.14014000  1
  C  C517  1  0.29752000  0.18428000  0.15248000  1
  C  C518  1  0.69749000  0.44520000  0.75242000  1
  C  C519  1  0.39094000  0.91434000  0.05418000  1
  C  C520  1  0.84020000  0.67970000  0.60090000  1
  C  C521  1  0.41384000  0.33611000  0.02661000  1
  C  C522  1  0.73458000  0.44572000  0.70552000  1
  C  C523  1  0.09586000  0.09370000  0.34298000  1
  C  C524  1  0.51074000  0.40289000  0.92243000  1
  C  C525  1  0.19319000  0.99482000  0.23980000  1
  C  C526  1  0.43299000  0.26020000  0.99482000  1
  C  C527  1  0.00810000  0.46220000  0.41220000  1
  C  C528  1  0.35150000  0.44711000  0.06629000  1
  C  C529  1  0.91780000  0.93492000  0.49848000  1
  C  C530  1  0.14451000  0.97055000  0.27023000  1
  C  C531  1  0.24995000  0.02661000  0.16389000  1
  C  C532  1  0.83606000  0.09711000  0.57757000  1
  C  C533  1  0.24263000  0.26561000  0.17093000  1
  C  C534  1  0.23581000  0.22123000  0.17615000  1
  C  C535  1  0.51910000  0.11460000  0.89140000  1
  C  C536  1  0.98630000  0.28250000  0.42150000  1
  C  C537  1  0.80930000  0.63660000  0.59440000  1
  C  C538  1  0.48923000  0.96142000  0.91392000  1
  C  C539  1  0.27500000  0.51070000  0.12750000  1
  C  C540  1  0.77100000  0.61960000  0.62800000  1
  C  C541  1  0.94210000  0.46500000  0.45420000  1
  C  C542  1  0.20121000  0.99734000  0.19364000  1
  C  C543  1  0.39485000  0.30636000  0.99734000  1
  C  C544  1  0.80528000  0.05418000  0.58566000  1
  C  C545  1  0.01070000  0.43530000  0.37770000  1
  C  C546  1  0.41474000  0.22977000  0.97055000  1
  C  C547  1  0.61471000  0.47055000  0.77023000  1
  C  C548  1  0.62601000  0.91582000  0.75456000  1
  C  C549  1  0.95817000  0.24544000  0.41582000  1
  C  C550  1  0.11309000  0.11595000  0.26067000  1
  C  C551  1  0.74720000  0.58050000  0.62330000  1
  C  C552  1  0.06323000  0.12045000  0.30689000  1
  C  C553  1  0.69391000  0.47112000  0.67406000  1
  C  C554  1  0.58804000  0.67615000  0.77877000  1
  C  C555  1  0.55000000  0.65248000  0.81572000  1
  C  C556  1  0.81550000  0.62180000  0.54960000  1
  C  C557  1  0.40315000  0.58608000  0.96142000  1
  C  C558  1  0.88000000  0.89680000  0.48020000  1
  C  C559  1  0.44512000  0.44582000  0.91434000  1
  C  C560  1  0.10489000  0.94520000  0.25242000  1
  C  C561  1  0.33489000  0.10242000  0.02160000  1
  C  C562  1  0.35120000  0.56508000  0.00152000  1
  C  C563  1  0.29861000  0.06629000  0.05289000  1
  C  C564  1  0.41628000  0.00152000  0.93492000  1
  C  C565  1  0.88300000  0.44153000  0.45807000  1
  C  C566  1  0.79030000  0.58160000  0.54900000  1
  C  C567  1  0.95650000  0.41010000  0.38210000  1
  C  C568  1  0.16091000  0.97112000  0.17406000  1
  C  C569  1  0.93731000  0.02160000  0.39758000  1
  C  C570  1  0.58644000  0.67093000  0.73439000  1
  C  C571  1  0.11418000  0.94572000  0.20552000  1
  C  C572  1  0.81541000  0.44935000  0.50123000  1
  C  C573  1  0.50943000  0.62045000  0.80689000  1
  C  C574  1  0.89119000  0.41132000  0.42250000  1
  C  C575  1  0.08857000  0.14014000  0.22472000  1
  C  C576  1  0.57219000  0.49482000  0.73980000  1
  C  C577  1  0.46746000  0.59370000  0.84298000  1
  C  C578  1  0.59220000  0.92150000  0.71750000  1
  C  C579  1  0.50043000  0.92229000  0.80645000  1
  C  C580  1  0.33497000  0.32594000  0.97112000  1
  C  C581  1  0.35731000  0.24758000  0.94520000  1
  C  C582  1  0.60781000  0.49734000  0.69364000  1
  C  C583  1  0.86490000  0.05289000  0.43371000  1
  C  C584  1  0.98180000  0.15248000  0.31572000  1
  C  C585  1  0.38057000  0.74544000  0.91582000  1
  C  C586  1  0.91320000  0.98930000  0.37250000  1
  C  C587  1  0.25700000  0.60320000  0.01980000  1
  C  C588  1  0.28570000  0.12750000  0.98930000  1
  C  C589  1  0.68631000  0.92250000  0.58868000  1
  C  C590  1  0.54657000  0.64014000  0.72472000  1
  C  C591  1  0.51029000  0.61595000  0.76067000  1
  C  C592  1  0.31970000  0.29448000  0.94572000  1
  C  C593  1  0.36020000  0.01980000  0.89680000  1
  C  C594  1  0.17230000  0.37670000  0.08050000  1
  C  C595  1  0.66140000  0.88210000  0.58990000  1
  C  C596  1  0.77656000  0.16389000  0.47339000  1
  C  C597  1  0.00824000  0.17093000  0.23439000  1
  C  C598  1  0.95704000  0.17615000  0.27877000  1
  C  C599  1  0.46310000  0.92730000  0.77230000  1
  C  C600  1  0.23401000  0.94935000  0.00123000  1
  C  C601  1  0.68336000  0.00123000  0.55065000  1
  C  C602  1  0.50630000  0.92800000  0.72640000  1
  C  C603  1  0.30970000  0.78250000  0.92150000  1
  C  C604  1  0.30688000  0.69355000  0.92229000  1
  C  C605  1  0.10940000  0.37200000  0.11960000  1
  C  C606  1  0.55955000  0.52661000  0.66389000  1
  C  C607  1  0.65893000  0.95807000  0.55847000  1
  C  C608  1  0.12810000  0.45100000  0.08160000  1
  C  C609  1  0.69855000  0.19364000  0.50266000  1
  C  C610  1  0.27499000  0.91132000  0.92250000  1
  C  C611  1  0.64054000  0.41434000  0.55418000  1
  C  C612  1  0.68801000  0.23980000  0.50518000  1
  C  C613  1  0.05410000  0.40560000  0.13660000  1
  C  C614  1  0.23524000  0.49877000  0.94935000  1
  C  C615  1  0.06270000  0.45040000  0.12180000  1
  C  C616  1  0.61160000  0.87770000  0.56470000  1
  C  C617  1  0.21740000  0.94153000  0.95807000  1
  C  C618  1  0.04900000  0.08050000  0.12330000  1
  C  C619  1  0.56683000  0.42243000  0.59711000  1
  C  C620  1  0.23540000  0.72770000  0.92730000  1
  C  C621  1  0.63203000  0.17406000  0.52888000  1
  C  C622  1  0.23270000  0.77360000  0.92800000  1
  C  C623  1  0.98010000  0.39910000  0.17970000  1
  C  C624  1  0.46820000  0.93460000  0.68720000  1
  C  C625  1  0.61506000  0.27023000  0.52945000  1
  C  C626  1  0.60370000  0.95420000  0.53500000  1
  C  C627  1  0.58221000  0.56629000  0.55289000  1
  C  C628  1  0.52510000  0.38540000  0.60860000  1
  C  C629  1  0.25130000  0.91010000  0.88210000  1
  C  C630  1  0.07910000  0.08160000  0.04900000  1
  C  C631  1  0.44110000  0.89910000  0.67970000  1
  C  C632  1  0.72320000  0.51980000  0.39680000  1
  C  C633  1  0.57970000  0.91220000  0.53780000  1
  C  C634  1  0.17547000  0.54193000  0.94153000  1
  C  C635  1  0.55990000  0.20552000  0.55428000  1
  C  C636  1  0.72904000  0.26067000  0.38405000  1
  C  C637  1  0.83730000  0.42730000  0.27230000  1
  C  C638  1  0.98140000  0.11960000  0.12800000  1
  C  C639  1  0.19749000  0.57750000  0.91132000  1
  C  C640  1  0.55009000  0.25242000  0.55480000  1
  C  C641  1  0.91000000  0.43460000  0.18720000  1
  C  C642  1  0.68956000  0.34298000  0.40630000  1
  C  C643  1  0.13870000  0.96500000  0.95420000  1
  C  C644  1  0.15540000  0.81280000  0.93460000  1
  C  C645  1  0.72871000  0.22472000  0.35986000  1
  C  C646  1  0.59750000  0.62750000  0.48930000  1
  C  C647  1  0.64728000  0.50152000  0.43492000  1
  C  C648  1  0.66070000  0.04900000  0.41840000  1
  C  C649  1  0.77083000  0.42229000  0.30645000  1
  C  C650  1  0.83930000  0.42800000  0.22640000  1
  C  C651  1  0.68368000  0.30689000  0.37955000  1
  C  C652  1  0.01310000  0.12180000  0.04960000  1
  C  C653  1  0.54109000  0.60242000  0.52160000  1
  C  C654  1  0.09290000  0.54580000  0.96500000  1
  C  C655  1  0.95970000  0.13660000  0.09440000  1
  C  C656  1  0.17630000  0.93530000  0.87770000  1
  C  C657  1  0.63543000  0.46142000  0.41392000  1
  C  C658  1  0.62950000  0.12330000  0.41950000  1
  C  C659  1  0.13340000  0.61790000  0.91010000  1
  C  C660  1  0.36681000  0.72123000  0.67615000  1
  C  C661  1  0.29639000  0.58418000  0.74544000  1
  C  C662  1  0.40370000  0.90560000  0.63660000  1
  C  C663  1  0.11750000  0.96220000  0.91220000  1
  C  C664  1  0.12080000  0.82030000  0.89910000  1
  C  C665  1  0.39900000  0.87200000  0.61960000  1
  C  C666  1  0.36572000  0.68428000  0.65248000  1
  C  C667  1  0.23120000  0.57850000  0.78250000  1
  C  C668  1  0.63490000  0.04960000  0.37820000  1
  C  C669  1  0.94600000  0.37770000  0.06470000  1
  C  C670  1  0.67917000  0.23439000  0.32907000  1
  C  C671  1  0.97030000  0.41220000  0.03780000  1
  N  N672  1  0.29787000  0.58282000  0.70184000  1
  N  N673  1  0.34763000  0.61273000  0.60021000  1
  N  N674  1  0.33452000  0.58092000  0.57364000  1
  N  N675  1  0.34359000  0.91425000  0.56117000  1
  N  N676  1  0.45540000  0.43462000  0.40398000  1
  N  N677  1  0.90476000  0.93883000  0.91425000  1
  N  N678  1  0.40454000  0.46770000  0.38122000  1
  N  N679  1  0.30748000  0.56120000  0.45084000  1
  N  N680  1  0.81901000  0.58575000  0.93883000  1
  N  N681  1  0.68429000  0.50667000  0.07275000  1
  N  N682  1  0.21424000  0.88122000  0.53230000  1
  N  N683  1  0.24296000  0.57275000  0.49333000  1
  N  N684  1  0.14062000  0.90398000  0.56538000  1
  N  N685  1  0.61931000  0.29816000  0.08282000  1
  N  N686  1  0.63132000  0.54916000  0.06120000  1
  N  N687  1  0.26371000  0.99333000  0.42725000  1
  N  N688  1  0.69096000  0.07275000  0.99333000  1
  N  N689  1  0.24168000  0.95084000  0.43880000  1
  N  N690  1  0.58456000  0.42636000  0.08092000  1
  N  N691  1  0.24216000  0.43883000  0.41425000  1
  N  N692  1  0.53964000  0.39979000  0.11273000  1
  N  N693  1  0.68048000  0.06120000  0.95084000  1
  N  N694  1  0.74654000  0.96770000  0.88122000  1
  N  N695  1  0.41747000  0.08282000  0.20184000  1
  N  N696  1  0.70600000  0.93462000  0.90398000  1
  N  N697  1  0.62776000  0.61878000  0.96770000  1
  N  N698  1  0.51092000  0.08092000  0.07364000  1
  N  N699  1  0.99971000  0.79816000  0.58282000  1
  N  N700  1  0.94784000  0.89979000  0.61273000  1
  N  N701  1  0.60998000  0.59602000  0.93462000  1
  N  N702  1  0.43943000  0.11273000  0.10021000  1
  N  N703  1  0.09184000  0.07364000  0.41908000  1
  N  N704  1  0.90816000  0.92636000  0.58092000  1
  N  N705  1  0.56057000  0.88727000  0.89979000  1
  N  N706  1  0.39002000  0.40398000  0.06538000  1
  N  N707  1  0.05216000  0.10021000  0.38727000  1
  N  N708  1  0.00029000  0.20184000  0.41718000  1
  N  N709  1  0.48908000  0.91908000  0.92636000  1
  N  N710  1  0.37224000  0.38122000  0.03230000  1
  N  N711  1  0.29400000  0.06538000  0.09602000  1
  N  N712  1  0.58253000  0.91718000  0.79816000  1
  N  N713  1  0.25346000  0.03230000  0.11878000  1
  N  N714  1  0.31952000  0.93880000  0.04916000  1
  N  N715  1  0.46036000  0.60021000  0.88727000  1
  N  N716  1  0.75784000  0.56117000  0.58575000  1
  N  N717  1  0.41544000  0.57364000  0.91908000  1
  N  N718  1  0.75832000  0.04916000  0.56120000  1
  N  N719  1  0.30904000  0.92725000  0.00667000  1
  N  N720  1  0.73629000  0.00667000  0.57275000  1
  N  N721  1  0.36868000  0.45084000  0.93880000  1
  N  N722  1  0.38069000  0.70184000  0.91718000  1
  N  N723  1  0.85938000  0.09602000  0.43462000  1
  N  N724  1  0.75704000  0.42725000  0.50667000  1
  N  N725  1  0.78576000  0.11878000  0.46770000  1
  N  N726  1  0.31571000  0.49333000  0.92725000  1
  N  N727  1  0.18099000  0.41425000  0.06117000  1
  N  N728  1  0.69252000  0.43880000  0.54916000  1
  N  N729  1  0.59546000  0.53230000  0.61878000  1
  N  N730  1  0.09524000  0.06117000  0.08575000  1
  N  N731  1  0.54460000  0.56538000  0.59602000  1
  N  N732  1  0.65641000  0.08575000  0.43883000  1
  N  N733  1  0.66548000  0.41908000  0.42636000  1
  N  N734  1  0.65237000  0.38727000  0.39979000  1
  N  N735  1  0.70213000  0.41718000  0.29816000  1
  O  O736  1  0.59724000  0.47101000  0.38131000  1
  O  O737  1  0.58759000  0.35825000  0.34017000  1
  O  O738  1  0.72697000  0.42526000  0.11660000  1
  O  O739  1  0.36635000  0.86980000  0.47090000  1
  O  O740  1  0.51750000  0.45177000  0.31683000  1
  O  O741  1  0.26927000  0.66877000  0.56289000  1
  O  O742  1  0.35017000  0.61668000  0.47558000  1
  O  O743  1  0.34307000  0.96873000  0.47773000  1
  O  O744  1  0.78953000  0.53127000  0.02227000  1
  O  O745  1  0.34284000  0.46000000  0.46652000  1
  O  O746  1  0.82080000  0.02227000  0.96873000  1
  O  O747  1  0.70705000  0.63020000  0.02910000  1
  O  O748  1  0.15643000  0.61660000  0.57474000  1
  O  O749  1  0.56196000  0.43711000  0.16877000  1
  O  O750  1  0.19064000  0.96652000  0.54000000  1
  O  O751  1  0.65223000  0.11660000  0.07474000  1
  O  O752  1  0.07224000  0.84017000  0.64175000  1
  O  O753  1  0.16567000  0.81683000  0.54823000  1
  O  O754  1  0.83725000  0.02910000  0.86980000  1
  O  O755  1  0.73064000  0.96000000  0.96652000  1
  O  O756  1  0.69716000  0.53348000  0.96000000  1
  O  O757  1  0.18820000  0.52227000  0.46873000  1
  O  O758  1  0.26883000  0.07474000  0.38340000  1
  O  O759  1  0.53315000  0.52442000  0.11668000  1
  O  O760  1  0.26385000  0.52910000  0.36980000  1
  O  O761  1  0.56825000  0.38131000  0.02899000  1
  O  O762  1  0.44584000  0.34017000  0.14175000  1
  O  O763  1  0.44956000  0.02899000  0.11869000  1
  O  O764  1  0.49907000  0.16877000  0.06289000  1
  O  O765  1  0.17425000  0.97558000  0.38332000  1
  O  O766  1  0.71399000  0.85825000  0.84017000  1
  O  O767  1  0.02145000  0.88131000  0.52899000  1
  O  O768  1  0.55757000  0.11668000  0.97558000  1
  O  O769  1  0.71390000  0.95177000  0.81683000  1
  O  O770  1  0.46927000  0.31683000  0.04823000  1
  O  O771  1  0.83216000  0.93711000  0.66877000  1
  O  O772  1  0.16784000  0.06289000  0.33123000  1
  O  O773  1  0.53073000  0.68317000  0.95177000  1
  O  O774  1  0.28610000  0.04823000  0.18317000  1
  O  O775  1  0.44243000  0.88332000  0.02442000  1
  O  O776  1  0.97855000  0.11869000  0.47101000  1
  O  O777  1  0.28601000  0.14175000  0.15983000  1
  O  O778  1  0.82575000  0.02442000  0.61668000  1
  O  O779  1  0.50093000  0.83123000  0.93711000  1
  O  O780  1  0.55044000  0.97101000  0.88131000  1
  O  O781  1  0.55416000  0.65983000  0.85825000  1
  O  O782  1  0.43175000  0.61869000  0.97101000  1
  O  O783  1  0.73615000  0.47090000  0.63020000  1
  O  O784  1  0.46685000  0.47558000  0.88332000  1
  O  O785  1  0.73117000  0.92526000  0.61660000  1
  O  O786  1  0.81180000  0.47773000  0.53127000  1
  O  O787  1  0.30284000  0.46652000  0.04000000  1
  O  O788  1  0.26936000  0.04000000  0.03348000  1
  O  O789  1  0.16275000  0.97090000  0.13020000  1
  O  O790  1  0.83433000  0.18317000  0.45177000  1
  O  O791  1  0.92776000  0.15983000  0.35825000  1
  O  O792  1  0.34777000  0.88340000  0.92526000  1
  O  O793  1  0.80936000  0.03348000  0.46000000  1
  O  O794  1  0.43804000  0.56289000  0.83123000  1
  O  O795  1  0.84357000  0.38340000  0.42526000  1
  O  O796  1  0.29295000  0.36980000  0.97090000  1
  O  O797  1  0.17920000  0.97773000  0.03127000  1
  O  O798  1  0.65716000  0.54000000  0.53348000  1
  O  O799  1  0.21047000  0.46873000  0.97773000  1
  O  O800  1  0.65693000  0.03127000  0.52227000  1
  O  O801  1  0.64983000  0.38332000  0.52442000  1
  O  O802  1  0.73073000  0.33123000  0.43711000  1
  O  O803  1  0.48250000  0.54823000  0.68317000  1
  O  O804  1  0.63365000  0.13020000  0.52910000  1
  O  O805  1  0.27303000  0.57474000  0.88340000  1
  O  O806  1  0.41241000  0.64175000  0.65983000  1
  O  O807  1  0.40276000  0.52899000  0.61869000  1
