# generated using pymatgen
data_FeH10C18O5
_symmetry_space_group_name_H-M   'P 1'
_cell_length_a   18.37500000
_cell_length_b   24.68800000
_cell_length_c   35.25700000
_cell_angle_alpha   90.34500000
_cell_angle_beta   90.00000000
_cell_angle_gamma   90.00000000
_symmetry_Int_Tables_number   1
_chemical_formula_structural   FeH10C18O5
_chemical_formula_sum   'Fe12 H120 C216 O60'
_cell_volume   15993.76604593
_cell_formula_units_Z   12
loop_
 _symmetry_equiv_pos_site_id
 _symmetry_equiv_pos_as_xyz
  1  'x, y, z'
loop_
 _atom_site_type_symbol
 _atom_site_label
 _atom_site_symmetry_multiplicity
 _atom_site_fract_x
 _atom_site_fract_y
 _atom_site_fract_z
 _atom_site_occupancy
  Fe  Fe0  1  0.09545000  0.74566000  0.32539000  1
  Fe  Fe1  1  0.15951000  0.82819000  0.39128000  1
  Fe  Fe2  1  0.23408000  0.70696000  0.37863000  1
  Fe  Fe3  1  0.26592000  0.70696000  0.87863000  1
  Fe  Fe4  1  0.34049000  0.82819000  0.89128000  1
  Fe  Fe5  1  0.40455000  0.74566000  0.82539000  1
  Fe  Fe6  1  0.59545000  0.25434000  0.17461000  1
  Fe  Fe7  1  0.65951000  0.17181000  0.10872000  1
  Fe  Fe8  1  0.73408000  0.29304000  0.12137000  1
  Fe  Fe9  1  0.76592000  0.29304000  0.62137000  1
  Fe  Fe10  1  0.84049000  0.17181000  0.60872000  1
  Fe  Fe11  1  0.90455000  0.25434000  0.67461000  1
  H  H12  1  0.01420000  0.40120000  0.66900000  1
  H  H13  1  0.02680000  0.54970000  0.55620000  1
  H  H14  1  0.03680000  0.95530000  0.86470000  1
  H  H15  1  0.04370000  0.08880000  0.61230000  1
  H  H16  1  0.04640000  0.02990000  0.18880000  1
  H  H17  1  0.05200000  0.76580000  0.86770000  1
  H  H18  1  0.05860000  0.19170000  0.14700000  1
  H  H19  1  0.05920000  0.57520000  0.68370000  1
  H  H20  1  0.06370000  0.75070000  0.56780000  1
  H  H21  1  0.06500000  0.64390000  0.73280000  1
  H  H22  1  0.07180000  0.48530000  0.66370000  1
  H  H23  1  0.08100000  0.86300000  0.24270000  1
  H  H24  1  0.08860000  0.92780000  0.19450000  1
  H  H25  1  0.09120000  0.46270000  0.40350000  1
  H  H26  1  0.10140000  0.78980000  0.51120000  1
  H  H27  1  0.12410000  0.23170000  0.65050000  1
  H  H28  1  0.13170000  0.66440000  0.78640000  1
  H  H29  1  0.13930000  0.60580000  0.53140000  1
  H  H30  1  0.14100000  0.70100000  0.62440000  1
  H  H31  1  0.14670000  0.91310000  0.88080000  1
  H  H32  1  0.14780000  0.54680000  0.39910000  1
  H  H33  1  0.15600000  0.04700000  0.62450000  1
  H  H34  1  0.15860000  0.14030000  0.12690000  1
  H  H35  1  0.17690000  0.64500000  0.47450000  1
  H  H36  1  0.19640000  0.70660000  0.22120000  1
  H  H37  1  0.21040000  0.95490000  0.30950000  1
  H  H38  1  0.21590000  0.99540000  0.70320000  1
  H  H39  1  0.21840000  0.02010000  0.26110000  1
  H  H40  1  0.23650000  0.68370000  0.66710000  1
  H  H41  1  0.23670000  0.19040000  0.66140000  1
  H  H42  1  0.26330000  0.19040000  0.16140000  1
  H  H43  1  0.26350000  0.68370000  0.16710000  1
  H  H44  1  0.28160000  0.02010000  0.76110000  1
  H  H45  1  0.28410000  0.99540000  0.20320000  1
  H  H46  1  0.28960000  0.95490000  0.80950000  1
  H  H47  1  0.30360000  0.70660000  0.72120000  1
  H  H48  1  0.32310000  0.64500000  0.97450000  1
  H  H49  1  0.34140000  0.14030000  0.62690000  1
  H  H50  1  0.34400000  0.04700000  0.12450000  1
  H  H51  1  0.35220000  0.54680000  0.89910000  1
  H  H52  1  0.35330000  0.91310000  0.38080000  1
  H  H53  1  0.35900000  0.70100000  0.12440000  1
  H  H54  1  0.36070000  0.60580000  0.03140000  1
  H  H55  1  0.36830000  0.66440000  0.28640000  1
  H  H56  1  0.37590000  0.23170000  0.15050000  1
  H  H57  1  0.39860000  0.78980000  0.01120000  1
  H  H58  1  0.40880000  0.46270000  0.90350000  1
  H  H59  1  0.41140000  0.92780000  0.69450000  1
  H  H60  1  0.41900000  0.86300000  0.74270000  1
  H  H61  1  0.42820000  0.48530000  0.16370000  1
  H  H62  1  0.43500000  0.64390000  0.23280000  1
  H  H63  1  0.43630000  0.75070000  0.06780000  1
  H  H64  1  0.44080000  0.57520000  0.18370000  1
  H  H65  1  0.44140000  0.19170000  0.64700000  1
  H  H66  1  0.44800000  0.76580000  0.36770000  1
  H  H67  1  0.45360000  0.02990000  0.68880000  1
  H  H68  1  0.45630000  0.08880000  0.11230000  1
  H  H69  1  0.46320000  0.95530000  0.36470000  1
  H  H70  1  0.47320000  0.54970000  0.05620000  1
  H  H71  1  0.48580000  0.40120000  0.16900000  1
  H  H72  1  0.51420000  0.59880000  0.83100000  1
  H  H73  1  0.52680000  0.45030000  0.94380000  1
  H  H74  1  0.53680000  0.04470000  0.63530000  1
  H  H75  1  0.54370000  0.91120000  0.88770000  1
  H  H76  1  0.54640000  0.97010000  0.31120000  1
  H  H77  1  0.55200000  0.23420000  0.63230000  1
  H  H78  1  0.55860000  0.80830000  0.35300000  1
  H  H79  1  0.55920000  0.42480000  0.81630000  1
  H  H80  1  0.56370000  0.24930000  0.93220000  1
  H  H81  1  0.56500000  0.35610000  0.76720000  1
  H  H82  1  0.57180000  0.51470000  0.83630000  1
  H  H83  1  0.58100000  0.13700000  0.25730000  1
  H  H84  1  0.58860000  0.07220000  0.30550000  1
  H  H85  1  0.59120000  0.53730000  0.09650000  1
  H  H86  1  0.60140000  0.21020000  0.98880000  1
  H  H87  1  0.62410000  0.76830000  0.84950000  1
  H  H88  1  0.63170000  0.33560000  0.71360000  1
  H  H89  1  0.63930000  0.39420000  0.96860000  1
  H  H90  1  0.64100000  0.29900000  0.87560000  1
  H  H91  1  0.64670000  0.08690000  0.61920000  1
  H  H92  1  0.64780000  0.45320000  0.10090000  1
  H  H93  1  0.65600000  0.95300000  0.87550000  1
  H  H94  1  0.65860000  0.85970000  0.37310000  1
  H  H95  1  0.67690000  0.35500000  0.02550000  1
  H  H96  1  0.69640000  0.29340000  0.27880000  1
  H  H97  1  0.71040000  0.04510000  0.19050000  1
  H  H98  1  0.71590000  0.00460000  0.79680000  1
  H  H99  1  0.71840000  0.97990000  0.23890000  1
  H  H100  1  0.73650000  0.31630000  0.83290000  1
  H  H101  1  0.73670000  0.80960000  0.83860000  1
  H  H102  1  0.76330000  0.80960000  0.33860000  1
  H  H103  1  0.76350000  0.31630000  0.33290000  1
  H  H104  1  0.78160000  0.97990000  0.73890000  1
  H  H105  1  0.78410000  0.00460000  0.29680000  1
  H  H106  1  0.78960000  0.04510000  0.69050000  1
  H  H107  1  0.80360000  0.29340000  0.77880000  1
  H  H108  1  0.82310000  0.35500000  0.52550000  1
  H  H109  1  0.84140000  0.85970000  0.87310000  1
  H  H110  1  0.84400000  0.95300000  0.37550000  1
  H  H111  1  0.85220000  0.45320000  0.60090000  1
  H  H112  1  0.85330000  0.08690000  0.11920000  1
  H  H113  1  0.85900000  0.29900000  0.37560000  1
  H  H114  1  0.86070000  0.39420000  0.46860000  1
  H  H115  1  0.86830000  0.33560000  0.21360000  1
  H  H116  1  0.87590000  0.76830000  0.34950000  1
  H  H117  1  0.89860000  0.21020000  0.48880000  1
  H  H118  1  0.90880000  0.53730000  0.59650000  1
  H  H119  1  0.91140000  0.07220000  0.80550000  1
  H  H120  1  0.91900000  0.13700000  0.75730000  1
  H  H121  1  0.92820000  0.51470000  0.33630000  1
  H  H122  1  0.93500000  0.35610000  0.26720000  1
  H  H123  1  0.93630000  0.24930000  0.43220000  1
  H  H124  1  0.94080000  0.42480000  0.31630000  1
  H  H125  1  0.94140000  0.80830000  0.85300000  1
  H  H126  1  0.94800000  0.23420000  0.13230000  1
  H  H127  1  0.95360000  0.97010000  0.81120000  1
  H  H128  1  0.95630000  0.91120000  0.38770000  1
  H  H129  1  0.96320000  0.04470000  0.13530000  1
  H  H130  1  0.97320000  0.45030000  0.44380000  1
  H  H131  1  0.98580000  0.59880000  0.33100000  1
  C  C132  1  0.00072000  0.81060000  0.37141000  1
  C  C133  1  0.00451000  0.48088000  0.37080000  1
  C  C134  1  0.00736000  0.57121000  0.34592000  1
  C  C135  1  0.01691000  0.17031000  0.14148000  1
  C  C136  1  0.02214000  0.11369000  0.14237000  1
  C  C137  1  0.02701000  0.47884000  0.65096000  1
  C  C138  1  0.03310000  0.57292000  0.62830000  1
  C  C139  1  0.03935000  0.91693000  0.86565000  1
  C  C140  1  0.04220000  0.60100000  0.59429000  1
  C  C141  1  0.04874000  0.80420000  0.86745000  1
  C  C142  1  0.06480000  0.59388000  0.66045000  1
  C  C143  1  0.06934000  0.49052000  0.38891000  1
  C  C144  1  0.07277000  0.58129000  0.36440000  1
  C  C145  1  0.07354000  0.16324000  0.63035000  1
  C  C146  1  0.08252000  0.64792000  0.59275000  1
  C  C147  1  0.08279000  0.10939000  0.62257000  1
  C  C148  1  0.08678000  0.72911000  0.54891000  1
  C  C149  1  0.09128000  0.04499000  0.18067000  1
  C  C150  1  0.09168000  0.08876000  0.15555000  1
  C  C151  1  0.09820000  0.67397000  0.55499000  1
  C  C152  1  0.10333000  0.54050000  0.38609000  1
  C  C153  1  0.10500000  0.89186000  0.87505000  1
  C  C154  1  0.10515000  0.64181000  0.66002000  1
  C  C155  1  0.10802000  0.63581000  0.36258000  1
  C  C156  1  0.10874000  0.89502000  0.24654000  1
  C  C157  1  0.10886000  0.83578000  0.87597000  1
  C  C158  1  0.10920000  0.75223000  0.51524000  1
  C  C159  1  0.11335000  0.93345000  0.21780000  1
  C  C160  1  0.11357000  0.66841000  0.62540000  1
  C  C161  1  0.11372000  0.65609000  0.73017000  1
  C  C162  1  0.13072000  0.19424000  0.64513000  1
  C  C163  1  0.13151000  0.64335000  0.52731000  1
  C  C164  1  0.13674000  0.86188000  0.31135000  1
  C  C165  1  0.14261000  0.72169000  0.48755000  1
  C  C166  1  0.14350000  0.66077000  0.69413000  1
  C  C167  1  0.14450000  0.90333000  0.28084000  1
  C  C168  1  0.14971000  0.08453000  0.62977000  1
  C  C169  1  0.15320000  0.66869000  0.76206000  1
  C  C170  1  0.15401000  0.66652000  0.49344000  1
  C  C171  1  0.15439000  0.98019000  0.22346000  1
  C  C172  1  0.15717000  0.02345000  0.19381000  1
  C  C173  1  0.15810000  0.11050000  0.14390000  1
  C  C174  1  0.16972000  0.74670000  0.45182000  1
  C  C175  1  0.17900000  0.80864000  0.88483000  1
  C  C176  1  0.18543000  0.94937000  0.28625000  1
  C  C177  1  0.19028000  0.98826000  0.25730000  1
  C  C178  1  0.19724000  0.16956000  0.65180000  1
  C  C179  1  0.20690000  0.11450000  0.64454000  1
  C  C180  1  0.21492000  0.67989000  0.69143000  1
  C  C181  1  0.22245000  0.04575000  0.18191000  1
  C  C182  1  0.22329000  0.08919000  0.15677000  1
  C  C183  1  0.22380000  0.68758000  0.75927000  1
  C  C184  1  0.23350000  0.70073000  0.29333000  1
  C  C185  1  0.24481000  0.69345000  0.22356000  1
  C  C186  1  0.25519000  0.69345000  0.72356000  1
  C  C187  1  0.26650000  0.70073000  0.79333000  1
  C  C188  1  0.27620000  0.68758000  0.25927000  1
  C  C189  1  0.27671000  0.08919000  0.65677000  1
  C  C190  1  0.27755000  0.04575000  0.68191000  1
  C  C191  1  0.28508000  0.67989000  0.19143000  1
  C  C192  1  0.29310000  0.11450000  0.14454000  1
  C  C193  1  0.30276000  0.16956000  0.15180000  1
  C  C194  1  0.30972000  0.98826000  0.75730000  1
  C  C195  1  0.31457000  0.94937000  0.78625000  1
  C  C196  1  0.32100000  0.80864000  0.38483000  1
  C  C197  1  0.33028000  0.74670000  0.95182000  1
  C  C198  1  0.34190000  0.11050000  0.64390000  1
  C  C199  1  0.34283000  0.02345000  0.69381000  1
  C  C200  1  0.34561000  0.98019000  0.72346000  1
  C  C201  1  0.34599000  0.66652000  0.99344000  1
  C  C202  1  0.34680000  0.66869000  0.26206000  1
  C  C203  1  0.35029000  0.08453000  0.12977000  1
  C  C204  1  0.35550000  0.90333000  0.78084000  1
  C  C205  1  0.35650000  0.66077000  0.19413000  1
  C  C206  1  0.35739000  0.72169000  0.98755000  1
  C  C207  1  0.36326000  0.86188000  0.81135000  1
  C  C208  1  0.36849000  0.64335000  0.02731000  1
  C  C209  1  0.36928000  0.19424000  0.14513000  1
  C  C210  1  0.38628000  0.65609000  0.23017000  1
  C  C211  1  0.38643000  0.66841000  0.12540000  1
  C  C212  1  0.38665000  0.93345000  0.71780000  1
  C  C213  1  0.39080000  0.75223000  0.01524000  1
  C  C214  1  0.39114000  0.83578000  0.37597000  1
  C  C215  1  0.39126000  0.89502000  0.74654000  1
  C  C216  1  0.39198000  0.63581000  0.86258000  1
  C  C217  1  0.39485000  0.64181000  0.16002000  1
  C  C218  1  0.39500000  0.89186000  0.37505000  1
  C  C219  1  0.39667000  0.54050000  0.88609000  1
  C  C220  1  0.40180000  0.67397000  0.05499000  1
  C  C221  1  0.40832000  0.08876000  0.65555000  1
  C  C222  1  0.40872000  0.04499000  0.68067000  1
  C  C223  1  0.41322000  0.72911000  0.04891000  1
  C  C224  1  0.41721000  0.10939000  0.12257000  1
  C  C225  1  0.41748000  0.64792000  0.09275000  1
  C  C226  1  0.42646000  0.16324000  0.13035000  1
  C  C227  1  0.42723000  0.58129000  0.86440000  1
  C  C228  1  0.43066000  0.49052000  0.88891000  1
  C  C229  1  0.43520000  0.59388000  0.16045000  1
  C  C230  1  0.45126000  0.80420000  0.36745000  1
  C  C231  1  0.45780000  0.60100000  0.09429000  1
  C  C232  1  0.46065000  0.91693000  0.36565000  1
  C  C233  1  0.46690000  0.57292000  0.12830000  1
  C  C234  1  0.47299000  0.47884000  0.15096000  1
  C  C235  1  0.47786000  0.11369000  0.64237000  1
  C  C236  1  0.48309000  0.17031000  0.64148000  1
  C  C237  1  0.49264000  0.57121000  0.84592000  1
  C  C238  1  0.49549000  0.48088000  0.87080000  1
  C  C239  1  0.49928000  0.81060000  0.87141000  1
  C  C240  1  0.50072000  0.18940000  0.12859000  1
  C  C241  1  0.50451000  0.51912000  0.12920000  1
  C  C242  1  0.50736000  0.42879000  0.15408000  1
  C  C243  1  0.51691000  0.82969000  0.35852000  1
  C  C244  1  0.52214000  0.88631000  0.35763000  1
  C  C245  1  0.52701000  0.52116000  0.84904000  1
  C  C246  1  0.53310000  0.42708000  0.87170000  1
  C  C247  1  0.53935000  0.08307000  0.63435000  1
  C  C248  1  0.54220000  0.39900000  0.90571000  1
  C  C249  1  0.54874000  0.19580000  0.63255000  1
  C  C250  1  0.56480000  0.40612000  0.83955000  1
  C  C251  1  0.56934000  0.50948000  0.11109000  1
  C  C252  1  0.57277000  0.41871000  0.13560000  1
  C  C253  1  0.57354000  0.83676000  0.86965000  1
  C  C254  1  0.58252000  0.35208000  0.90725000  1
  C  C255  1  0.58279000  0.89061000  0.87743000  1
  C  C256  1  0.58678000  0.27089000  0.95109000  1
  C  C257  1  0.59128000  0.95501000  0.31933000  1
  C  C258  1  0.59168000  0.91124000  0.34445000  1
  C  C259  1  0.59820000  0.32603000  0.94501000  1
  C  C260  1  0.60333000  0.45950000  0.11391000  1
  C  C261  1  0.60500000  0.10814000  0.62495000  1
  C  C262  1  0.60515000  0.35819000  0.83998000  1
  C  C263  1  0.60802000  0.36419000  0.13742000  1
  C  C264  1  0.60874000  0.10498000  0.25346000  1
  C  C265  1  0.60886000  0.16422000  0.62403000  1
  C  C266  1  0.60920000  0.24777000  0.98476000  1
  C  C267  1  0.61335000  0.06655000  0.28220000  1
  C  C268  1  0.61357000  0.33159000  0.87460000  1
  C  C269  1  0.61372000  0.34391000  0.76983000  1
  C  C270  1  0.63072000  0.80576000  0.85487000  1
  C  C271  1  0.63151000  0.35665000  0.97269000  1
  C  C272  1  0.63674000  0.13812000  0.18865000  1
  C  C273  1  0.64261000  0.27831000  0.01245000  1
  C  C274  1  0.64350000  0.33923000  0.80587000  1
  C  C275  1  0.64450000  0.09667000  0.21916000  1
  C  C276  1  0.64971000  0.91547000  0.87023000  1
  C  C277  1  0.65320000  0.33131000  0.73794000  1
  C  C278  1  0.65401000  0.33348000  0.00656000  1
  C  C279  1  0.65439000  0.01981000  0.27654000  1
  C  C280  1  0.65717000  0.97655000  0.30619000  1
  C  C281  1  0.65810000  0.88950000  0.35610000  1
  C  C282  1  0.66972000  0.25330000  0.04818000  1
  C  C283  1  0.67900000  0.19136000  0.61517000  1
  C  C284  1  0.68543000  0.05063000  0.21375000  1
  C  C285  1  0.69028000  0.01174000  0.24270000  1
  C  C286  1  0.69724000  0.83044000  0.84820000  1
  C  C287  1  0.70690000  0.88550000  0.85546000  1
  C  C288  1  0.71492000  0.32011000  0.80857000  1
  C  C289  1  0.72245000  0.95425000  0.31809000  1
  C  C290  1  0.72329000  0.91081000  0.34323000  1
  C  C291  1  0.72380000  0.31242000  0.74073000  1
  C  C292  1  0.73350000  0.29927000  0.20667000  1
  C  C293  1  0.74481000  0.30655000  0.27644000  1
  C  C294  1  0.75519000  0.30655000  0.77644000  1
  C  C295  1  0.76650000  0.29927000  0.70667000  1
  C  C296  1  0.77620000  0.31242000  0.24073000  1
  C  C297  1  0.77671000  0.91081000  0.84323000  1
  C  C298  1  0.77755000  0.95425000  0.81809000  1
  C  C299  1  0.78508000  0.32011000  0.30857000  1
  C  C300  1  0.79310000  0.88550000  0.35546000  1
  C  C301  1  0.80276000  0.83044000  0.34820000  1
  C  C302  1  0.80972000  0.01174000  0.74270000  1
  C  C303  1  0.81457000  0.05063000  0.71375000  1
  C  C304  1  0.82100000  0.19136000  0.11517000  1
  C  C305  1  0.83028000  0.25330000  0.54818000  1
  C  C306  1  0.84190000  0.88950000  0.85610000  1
  C  C307  1  0.84283000  0.97655000  0.80619000  1
  C  C308  1  0.84561000  0.01981000  0.77654000  1
  C  C309  1  0.84599000  0.33348000  0.50656000  1
  C  C310  1  0.84680000  0.33131000  0.23794000  1
  C  C311  1  0.85029000  0.91547000  0.37023000  1
  C  C312  1  0.85550000  0.09667000  0.71916000  1
  C  C313  1  0.85650000  0.33923000  0.30587000  1
  C  C314  1  0.85739000  0.27831000  0.51245000  1
  C  C315  1  0.86326000  0.13812000  0.68865000  1
  C  C316  1  0.86849000  0.35665000  0.47269000  1
  C  C317  1  0.86928000  0.80576000  0.35487000  1
  C  C318  1  0.88628000  0.34391000  0.26983000  1
  C  C319  1  0.88643000  0.33159000  0.37460000  1
  C  C320  1  0.88665000  0.06655000  0.78220000  1
  C  C321  1  0.89080000  0.24777000  0.48476000  1
  C  C322  1  0.89114000  0.16422000  0.12403000  1
  C  C323  1  0.89126000  0.10498000  0.75346000  1
  C  C324  1  0.89198000  0.36419000  0.63742000  1
  C  C325  1  0.89485000  0.35819000  0.33998000  1
  C  C326  1  0.89500000  0.10814000  0.12495000  1
  C  C327  1  0.89667000  0.45950000  0.61391000  1
  C  C328  1  0.90180000  0.32603000  0.44501000  1
  C  C329  1  0.90832000  0.91124000  0.84445000  1
  C  C330  1  0.90872000  0.95501000  0.81933000  1
  C  C331  1  0.91322000  0.27089000  0.45109000  1
  C  C332  1  0.91721000  0.89061000  0.37743000  1
  C  C333  1  0.91748000  0.35208000  0.40725000  1
  C  C334  1  0.92646000  0.83676000  0.36965000  1
  C  C335  1  0.92723000  0.41871000  0.63560000  1
  C  C336  1  0.93066000  0.50948000  0.61109000  1
  C  C337  1  0.93520000  0.40612000  0.33955000  1
  C  C338  1  0.95126000  0.19580000  0.13255000  1
  C  C339  1  0.95780000  0.39900000  0.40571000  1
  C  C340  1  0.96065000  0.08307000  0.13435000  1
  C  C341  1  0.96690000  0.42708000  0.37170000  1
  C  C342  1  0.97299000  0.52116000  0.34904000  1
  C  C343  1  0.97786000  0.88631000  0.85763000  1
  C  C344  1  0.98309000  0.82969000  0.85852000  1
  C  C345  1  0.99264000  0.42879000  0.65408000  1
  C  C346  1  0.99549000  0.51912000  0.62920000  1
  C  C347  1  0.99928000  0.18940000  0.62859000  1
  O  O348  1  0.00790000  0.57968000  0.56187000  1
  O  O349  1  0.00943000  0.76543000  0.35707000  1
  O  O350  1  0.04916000  0.83851000  0.38790000  1
  O  O351  1  0.07930000  0.66796000  0.33869000  1
  O  O352  1  0.09803000  0.82153000  0.30484000  1
  O  O353  1  0.14478000  0.79152000  0.44217000  1
  O  O354  1  0.16316000  0.64471000  0.38150000  1
  O  O355  1  0.16408000  0.76182000  0.36529000  1
  O  O356  1  0.16880000  0.87181000  0.34205000  1
  O  O357  1  0.17247000  0.72507000  0.28831000  1
  O  O358  1  0.18165000  0.75825000  0.87783000  1
  O  O359  1  0.21068000  0.02642000  0.69393000  1
  O  O360  1  0.21668000  0.71906000  0.43349000  1
  O  O361  1  0.23170000  0.83611000  0.89602000  1
  O  O362  1  0.24143000  0.68748000  0.82542000  1
  O  O363  1  0.25857000  0.68748000  0.32542000  1
  O  O364  1  0.26830000  0.83611000  0.39602000  1
  O  O365  1  0.28332000  0.71906000  0.93349000  1
  O  O366  1  0.28932000  0.02642000  0.19393000  1
  O  O367  1  0.31835000  0.75825000  0.37783000  1
  O  O368  1  0.32753000  0.72507000  0.78831000  1
  O  O369  1  0.33120000  0.87181000  0.84205000  1
  O  O370  1  0.33592000  0.76182000  0.86529000  1
  O  O371  1  0.33684000  0.64471000  0.88150000  1
  O  O372  1  0.35522000  0.79152000  0.94217000  1
  O  O373  1  0.40197000  0.82153000  0.80484000  1
  O  O374  1  0.42070000  0.66796000  0.83869000  1
  O  O375  1  0.45084000  0.83851000  0.88790000  1
  O  O376  1  0.49057000  0.76543000  0.85707000  1
  O  O377  1  0.49210000  0.57968000  0.06187000  1
  O  O378  1  0.50790000  0.42032000  0.93813000  1
  O  O379  1  0.50943000  0.23457000  0.14293000  1
  O  O380  1  0.54916000  0.16149000  0.11210000  1
  O  O381  1  0.57930000  0.33204000  0.16131000  1
  O  O382  1  0.59803000  0.17847000  0.19516000  1
  O  O383  1  0.64478000  0.20848000  0.05783000  1
  O  O384  1  0.66316000  0.35529000  0.11850000  1
  O  O385  1  0.66408000  0.23818000  0.13471000  1
  O  O386  1  0.66880000  0.12819000  0.15795000  1
  O  O387  1  0.67247000  0.27493000  0.21169000  1
  O  O388  1  0.68165000  0.24175000  0.62217000  1
  O  O389  1  0.71068000  0.97358000  0.80607000  1
  O  O390  1  0.71668000  0.28094000  0.06651000  1
  O  O391  1  0.73170000  0.16389000  0.60398000  1
  O  O392  1  0.74143000  0.31252000  0.67458000  1
  O  O393  1  0.75857000  0.31252000  0.17458000  1
  O  O394  1  0.76830000  0.16389000  0.10398000  1
  O  O395  1  0.78332000  0.28094000  0.56651000  1
  O  O396  1  0.78932000  0.97358000  0.30607000  1
  O  O397  1  0.81835000  0.24175000  0.12217000  1
  O  O398  1  0.82753000  0.27493000  0.71169000  1
  O  O399  1  0.83120000  0.12819000  0.65795000  1
  O  O400  1  0.83592000  0.23818000  0.63471000  1
  O  O401  1  0.83684000  0.35529000  0.61850000  1
  O  O402  1  0.85522000  0.20848000  0.55783000  1
  O  O403  1  0.90197000  0.17847000  0.69516000  1
  O  O404  1  0.92070000  0.33204000  0.66131000  1
  O  O405  1  0.95084000  0.16149000  0.61210000  1
  O  O406  1  0.99057000  0.23457000  0.64293000  1
  O  O407  1  0.99210000  0.42032000  0.43813000  1
