# generated using pymatgen
data_MnH10C14(NO2)2
_symmetry_space_group_name_H-M   'P 1'
_cell_length_a   11.94740000
_cell_length_b   11.94740000
_cell_length_c   16.24600000
_cell_angle_alpha   72.26530000
_cell_angle_beta   72.26530000
_cell_angle_gamma   77.79970000
_symmetry_Int_Tables_number   1
_chemical_formula_structural   MnH10C14(NO2)2
_chemical_formula_sum   'Mn4 H40 C56 N8 O16'
_cell_volume   2085.75291190
_cell_formula_units_Z   4
loop_
 _symmetry_equiv_pos_site_id
 _symmetry_equiv_pos_as_xyz
  1  'x, y, z'
loop_
 _atom_site_type_symbol
 _atom_site_label
 _atom_site_symmetry_multiplicity
 _atom_site_fract_x
 _atom_site_fract_y
 _atom_site_fract_z
 _atom_site_occupancy
  Mn  Mn0  1  0.61304000  0.83314000  0.04752000  1
  Mn  Mn1  1  0.83314000  0.61304000  0.54752000  1
  Mn  Mn2  1  0.16686000  0.38696000  0.45248000  1
  Mn  Mn3  1  0.38696000  0.16686000  0.95248000  1
  H  H4  1  0.57410000  0.98090000  0.54190000  1
  H  H5  1  0.51000000  0.85680000  0.25980000  1
  H  H6  1  0.53020000  0.82320000  0.47470000  1
  H  H7  1  0.65210000  0.80790000  0.77590000  1
  H  H8  1  0.40720000  0.78160000  0.99380000  1
  H  H9  1  0.62110000  0.73550000  0.33120000  1
  H  H10  1  0.35310000  0.71090000  0.48890000  1
  H  H11  1  0.63230000  0.66750000  0.42800000  1
  H  H12  1  0.80790000  0.65210000  0.27590000  1
  H  H13  1  0.28910000  0.64690000  0.01110000  1
  H  H14  1  0.66750000  0.63230000  0.92800000  1
  H  H15  1  0.73550000  0.62110000  0.83120000  1
  H  H16  1  0.21840000  0.59280000  0.50620000  1
  H  H17  1  0.54350000  0.57690000  0.82140000  1
  H  H18  1  0.98090000  0.57410000  0.04190000  1
  H  H19  1  0.56600000  0.56780000  0.16050000  1
  H  H20  1  0.56780000  0.56600000  0.66050000  1
  H  H21  1  0.57690000  0.54350000  0.32140000  1
  H  H22  1  0.82320000  0.53020000  0.97470000  1
  H  H23  1  0.85680000  0.51000000  0.75980000  1
  H  H24  1  0.14320000  0.49000000  0.24020000  1
  H  H25  1  0.17680000  0.46980000  0.02530000  1
  H  H26  1  0.42310000  0.45650000  0.67860000  1
  H  H27  1  0.43220000  0.43400000  0.33950000  1
  H  H28  1  0.43400000  0.43220000  0.83950000  1
  H  H29  1  0.01910000  0.42590000  0.95810000  1
  H  H30  1  0.45650000  0.42310000  0.17860000  1
  H  H31  1  0.78160000  0.40720000  0.49380000  1
  H  H32  1  0.26450000  0.37890000  0.16880000  1
  H  H33  1  0.33250000  0.36770000  0.07200000  1
  H  H34  1  0.71090000  0.35310000  0.98890000  1
  H  H35  1  0.19210000  0.34790000  0.72410000  1
  H  H36  1  0.36770000  0.33250000  0.57200000  1
  H  H37  1  0.64690000  0.28910000  0.51110000  1
  H  H38  1  0.37890000  0.26450000  0.66880000  1
  H  H39  1  0.59280000  0.21840000  0.00620000  1
  H  H40  1  0.34790000  0.19210000  0.22410000  1
  H  H41  1  0.46980000  0.17680000  0.52530000  1
  H  H42  1  0.49000000  0.14320000  0.74020000  1
  H  H43  1  0.42590000  0.01910000  0.45810000  1
  C  C44  1  0.57260000  0.97980000  0.59970000  1
  C  C45  1  0.56890000  0.97450000  0.77270000  1
  C  C46  1  0.57130000  0.97290000  0.86500000  1
  C  C47  1  0.47880000  0.92360000  0.28140000  1
  C  C48  1  0.48030000  0.92050000  0.36840000  1
  C  C49  1  0.62330000  0.87770000  0.65270000  1
  C  C50  1  0.62000000  0.87560000  0.73970000  1
  C  C51  1  0.68610000  0.77610000  0.61460000  1
  C  C52  1  0.57710000  0.71450000  0.39350000  1
  C  C53  1  0.41850000  0.70750000  0.03290000  1
  C  C54  1  0.77610000  0.68610000  0.11460000  1
  C  C55  1  0.37400000  0.65300000  0.45750000  1
  C  C56  1  0.48370000  0.64090000  0.40350000  1
  C  C57  1  0.34700000  0.62600000  0.04250000  1
  C  C58  1  0.87770000  0.62330000  0.15270000  1
  C  C59  1  0.87560000  0.62000000  0.23970000  1
  C  C60  1  0.51010000  0.58510000  0.12760000  1
  C  C61  1  0.29250000  0.58150000  0.46710000  1
  C  C62  1  0.71450000  0.57710000  0.89350000  1
  C  C63  1  0.97980000  0.57260000  0.09970000  1
  C  C64  1  0.97290000  0.57130000  0.36500000  1
  C  C65  1  0.97450000  0.56890000  0.27270000  1
  C  C66  1  0.50310000  0.55710000  0.36020000  1
  C  C67  1  0.07640000  0.52120000  0.21860000  1
  C  C68  1  0.07950000  0.51970000  0.13160000  1
  C  C69  1  0.35910000  0.51630000  0.09650000  1
  C  C70  1  0.58510000  0.51010000  0.62760000  1
  C  C71  1  0.55710000  0.50310000  0.86020000  1
  C  C72  1  0.44290000  0.49690000  0.13980000  1
  C  C73  1  0.41490000  0.48990000  0.37240000  1
  C  C74  1  0.64090000  0.48370000  0.90350000  1
  C  C75  1  0.92050000  0.48030000  0.86840000  1
  C  C76  1  0.92360000  0.47880000  0.78140000  1
  C  C77  1  0.49690000  0.44290000  0.63980000  1
  C  C78  1  0.02550000  0.43110000  0.72730000  1
  C  C79  1  0.02710000  0.42870000  0.63500000  1
  C  C80  1  0.02020000  0.42740000  0.90030000  1
  C  C81  1  0.28550000  0.42290000  0.10650000  1
  C  C82  1  0.70750000  0.41850000  0.53290000  1
  C  C83  1  0.48990000  0.41490000  0.87240000  1
  C  C84  1  0.12440000  0.38000000  0.76030000  1
  C  C85  1  0.12230000  0.37670000  0.84730000  1
  C  C86  1  0.65300000  0.37400000  0.95750000  1
  C  C87  1  0.51630000  0.35910000  0.59650000  1
  C  C88  1  0.62600000  0.34700000  0.54250000  1
  C  C89  1  0.22390000  0.31390000  0.88540000  1
  C  C90  1  0.58150000  0.29250000  0.96710000  1
  C  C91  1  0.42290000  0.28550000  0.60650000  1
  C  C92  1  0.31390000  0.22390000  0.38540000  1
  C  C93  1  0.38000000  0.12440000  0.26030000  1
  C  C94  1  0.37670000  0.12230000  0.34730000  1
  C  C95  1  0.51970000  0.07950000  0.63160000  1
  C  C96  1  0.52120000  0.07640000  0.71860000  1
  C  C97  1  0.42870000  0.02710000  0.13500000  1
  C  C98  1  0.43110000  0.02550000  0.22730000  1
  C  C99  1  0.42740000  0.02020000  0.40030000  1
  N  N100  1  0.52880000  0.82120000  0.42260000  1
  N  N101  1  0.50030000  0.68950000  0.07390000  1
  N  N102  1  0.82120000  0.52880000  0.92260000  1
  N  N103  1  0.68950000  0.50030000  0.57390000  1
  N  N104  1  0.31050000  0.49970000  0.42610000  1
  N  N105  1  0.17880000  0.47120000  0.07740000  1
  N  N106  1  0.49970000  0.31050000  0.92610000  1
  N  N107  1  0.47120000  0.17880000  0.57740000  1
  O  O108  1  0.46400000  0.93260000  0.11090000  1
  O  O109  1  0.61070000  0.87710000  0.91190000  1
  O  O110  1  0.69440000  0.78080000  0.53470000  1
  O  O111  1  0.68730000  0.73470000  0.16370000  1
  O  O112  1  0.78080000  0.69440000  0.03470000  1
  O  O113  1  0.73470000  0.68730000  0.66370000  1
  O  O114  1  0.87710000  0.61070000  0.41190000  1
  O  O115  1  0.06740000  0.53600000  0.38910000  1
  O  O116  1  0.93260000  0.46400000  0.61090000  1
  O  O117  1  0.12290000  0.38930000  0.58810000  1
  O  O118  1  0.26530000  0.31270000  0.33630000  1
  O  O119  1  0.21920000  0.30560000  0.96530000  1
  O  O120  1  0.31270000  0.26530000  0.83630000  1
  O  O121  1  0.30560000  0.21920000  0.46530000  1
  O  O122  1  0.38930000  0.12290000  0.08810000  1
  O  O123  1  0.53600000  0.06740000  0.88910000  1
