# generated using pymatgen
data_CuH8(C4O)4
_symmetry_space_group_name_H-M   'P 1'
_cell_length_a   11.54000000
_cell_length_b   16.77800000
_cell_length_c   28.46800000
_cell_angle_alpha   90.00000000
_cell_angle_beta   90.00000000
_cell_angle_gamma   90.00000000
_symmetry_Int_Tables_number   1
_chemical_formula_structural   CuH8(C4O)4
_chemical_formula_sum   'Cu12 H96 C192 O48'
_cell_volume   5511.92064016
_cell_formula_units_Z   12
loop_
 _symmetry_equiv_pos_site_id
 _symmetry_equiv_pos_as_xyz
  1  'x, y, z'
loop_
 _atom_site_type_symbol
 _atom_site_label
 _atom_site_symmetry_multiplicity
 _atom_site_fract_x
 _atom_site_fract_y
 _atom_site_fract_z
 _atom_site_occupancy
  Cu  Cu0  1  0.08390000  0.74350000  0.69566000  1
  Cu  Cu1  1  0.13480000  0.26820000  0.20140000  1
  Cu  Cu2  1  0.17010000  0.73500000  0.37330000  1
  Cu  Cu3  1  0.32990000  0.26500000  0.87330000  1
  Cu  Cu4  1  0.36520000  0.73180000  0.70140000  1
  Cu  Cu5  1  0.41610000  0.25650000  0.19566000  1
  Cu  Cu6  1  0.58390000  0.75650000  0.30434000  1
  Cu  Cu7  1  0.63480000  0.23180000  0.79860000  1
  Cu  Cu8  1  0.67010000  0.76500000  0.62670000  1
  Cu  Cu9  1  0.82990000  0.23500000  0.12670000  1
  Cu  Cu10  1  0.86520000  0.76820000  0.29860000  1
  Cu  Cu11  1  0.91610000  0.24350000  0.80434000  1
  H  H12  1  0.01260000  0.78440000  0.21400000  1
  H  H13  1  0.04420000  0.78720000  0.13250000  1
  H  H14  1  0.04830000  0.59980000  0.08880000  1
  H  H15  1  0.05030000  0.47340000  0.12430000  1
  H  H16  1  0.05930000  0.72470000  0.84330000  1
  H  H17  1  0.05960000  0.47150000  0.94760000  1
  H  H18  1  0.06300000  0.58490000  0.99570000  1
  H  H19  1  0.06870000  0.72560000  0.92560000  1
  H  H20  1  0.07150000  0.00460000  0.91050000  1
  H  H21  1  0.07160000  0.93590000  0.07900000  1
  H  H22  1  0.07410000  0.05710000  0.12000000  1
  H  H23  1  0.07630000  0.89410000  0.96070000  1
  H  H24  1  0.08070000  0.96870000  0.64310000  1
  H  H25  1  0.08320000  0.08990000  0.60210000  1
  H  H26  1  0.09200000  0.05270000  0.49640000  1
  H  H27  1  0.09670000  0.94190000  0.44600000  1
  H  H28  1  0.09810000  0.38040000  0.46310000  1
  H  H29  1  0.09870000  0.53200000  0.61380000  1
  H  H30  1  0.10100000  0.40610000  0.57840000  1
  H  H31  1  0.10170000  0.49380000  0.41500000  1
  H  H32  1  0.10290000  0.18810000  0.41900000  1
  H  H33  1  0.11240000  0.18900000  0.33680000  1
  H  H34  1  0.11930000  0.27360000  0.65330000  1
  H  H35  1  0.15000000  0.27640000  0.73430000  1
  H  H36  1  0.35000000  0.72360000  0.23430000  1
  H  H37  1  0.38070000  0.72640000  0.15330000  1
  H  H38  1  0.38760000  0.81100000  0.83680000  1
  H  H39  1  0.39710000  0.81190000  0.91900000  1
  H  H40  1  0.39830000  0.50620000  0.91500000  1
  H  H41  1  0.39900000  0.59390000  0.07840000  1
  H  H42  1  0.40130000  0.46800000  0.11380000  1
  H  H43  1  0.40190000  0.61960000  0.96310000  1
  H  H44  1  0.40330000  0.05810000  0.94600000  1
  H  H45  1  0.40800000  0.94730000  0.99640000  1
  H  H46  1  0.41680000  0.91010000  0.10210000  1
  H  H47  1  0.41930000  0.03130000  0.14310000  1
  H  H48  1  0.42370000  0.10590000  0.46070000  1
  H  H49  1  0.42590000  0.94290000  0.62000000  1
  H  H50  1  0.42840000  0.06410000  0.57900000  1
  H  H51  1  0.42850000  0.99540000  0.41050000  1
  H  H52  1  0.43130000  0.27440000  0.42560000  1
  H  H53  1  0.43700000  0.41510000  0.49570000  1
  H  H54  1  0.44040000  0.52850000  0.44760000  1
  H  H55  1  0.44070000  0.27530000  0.34330000  1
  H  H56  1  0.44970000  0.52660000  0.62430000  1
  H  H57  1  0.45170000  0.40020000  0.58880000  1
  H  H58  1  0.45580000  0.21280000  0.63250000  1
  H  H59  1  0.48740000  0.21560000  0.71400000  1
  H  H60  1  0.51260000  0.71560000  0.78600000  1
  H  H61  1  0.54420000  0.71280000  0.86750000  1
  H  H62  1  0.54830000  0.90020000  0.91120000  1
  H  H63  1  0.55030000  0.02660000  0.87570000  1
  H  H64  1  0.55930000  0.77530000  0.15670000  1
  H  H65  1  0.55960000  0.02850000  0.05240000  1
  H  H66  1  0.56300000  0.91510000  0.00430000  1
  H  H67  1  0.56870000  0.77440000  0.07440000  1
  H  H68  1  0.57150000  0.49540000  0.08950000  1
  H  H69  1  0.57160000  0.56410000  0.92100000  1
  H  H70  1  0.57410000  0.44290000  0.88000000  1
  H  H71  1  0.57630000  0.60590000  0.03930000  1
  H  H72  1  0.58070000  0.53130000  0.35690000  1
  H  H73  1  0.58320000  0.41010000  0.39790000  1
  H  H74  1  0.59200000  0.44730000  0.50360000  1
  H  H75  1  0.59670000  0.55810000  0.55400000  1
  H  H76  1  0.59810000  0.11960000  0.53690000  1
  H  H77  1  0.59870000  0.96800000  0.38620000  1
  H  H78  1  0.60100000  0.09390000  0.42160000  1
  H  H79  1  0.60170000  0.00620000  0.58500000  1
  H  H80  1  0.60290000  0.31190000  0.58100000  1
  H  H81  1  0.61240000  0.31100000  0.66320000  1
  H  H82  1  0.61930000  0.22640000  0.34670000  1
  H  H83  1  0.65000000  0.22360000  0.26570000  1
  H  H84  1  0.85000000  0.77640000  0.76570000  1
  H  H85  1  0.88070000  0.77360000  0.84670000  1
  H  H86  1  0.88760000  0.68900000  0.16320000  1
  H  H87  1  0.89710000  0.68810000  0.08100000  1
  H  H88  1  0.89830000  0.99380000  0.08500000  1
  H  H89  1  0.89900000  0.90610000  0.92160000  1
  H  H90  1  0.90130000  0.03200000  0.88620000  1
  H  H91  1  0.90190000  0.88040000  0.03690000  1
  H  H92  1  0.90330000  0.44190000  0.05400000  1
  H  H93  1  0.90800000  0.55270000  0.00360000  1
  H  H94  1  0.91680000  0.58990000  0.89790000  1
  H  H95  1  0.91930000  0.46870000  0.85690000  1
  H  H96  1  0.92370000  0.39410000  0.53930000  1
  H  H97  1  0.92590000  0.55710000  0.38000000  1
  H  H98  1  0.92840000  0.43590000  0.42100000  1
  H  H99  1  0.92850000  0.50460000  0.58950000  1
  H  H100  1  0.93130000  0.22560000  0.57440000  1
  H  H101  1  0.93700000  0.08490000  0.50430000  1
  H  H102  1  0.94040000  0.97150000  0.55240000  1
  H  H103  1  0.94070000  0.22470000  0.65670000  1
  H  H104  1  0.94970000  0.97340000  0.37570000  1
  H  H105  1  0.95170000  0.09980000  0.41120000  1
  H  H106  1  0.95580000  0.28720000  0.36750000  1
  H  H107  1  0.98740000  0.28440000  0.28600000  1
  C  C108  1  0.08700000  0.77250000  0.20161000  1
  C  C109  1  0.10590000  0.77460000  0.15325000  1
  C  C110  1  0.11970000  0.57300000  0.09401000  1
  C  C111  1  0.12100000  0.49790000  0.11500000  1
  C  C112  1  0.12780000  0.74210000  0.85864000  1
  C  C113  1  0.12890000  0.50150000  0.95070000  1
  C  C114  1  0.13080000  0.56920000  0.97917000  1
  C  C115  1  0.13340000  0.74280000  0.90757000  1
  C  C116  1  0.13940000  0.99340000  0.92810000  1
  C  C117  1  0.14210000  0.95520000  0.09200000  1
  C  C118  1  0.14240000  0.92750000  0.95794000  1
  C  C119  1  0.14360000  0.02730000  0.11640000  1
  C  C120  1  0.15110000  0.98800000  0.63010000  1
  C  C121  1  0.15260000  0.06010000  0.60576000  1
  C  C122  1  0.15550000  0.74100000  0.28230000  1
  C  C123  1  0.16030000  0.04080000  0.47914000  1
  C  C124  1  0.16320000  0.97480000  0.44930000  1
  C  C125  1  0.16760000  0.41010000  0.45983000  1
  C  C126  1  0.16960000  0.47770000  0.43137000  1
  C  C127  1  0.17030000  0.50540000  0.60880000  1
  C  C128  1  0.17130000  0.20590000  0.40367000  1
  C  C129  1  0.17160000  0.43030000  0.58779000  1
  C  C130  1  0.17690000  0.20660000  0.35474000  1
  C  C131  1  0.18170000  0.75190000  0.23281000  1
  C  C132  1  0.19380000  0.26160000  0.66561000  1
  C  C133  1  0.21270000  0.26370000  0.71398000  1
  C  C134  1  0.21620000  0.75790000  0.13556000  1
  C  C135  1  0.22350000  0.76710000  0.83221000  1
  C  C136  1  0.22490000  0.60870000  0.08060000  1
  C  C137  1  0.22620000  0.45850000  0.12250000  1
  C  C138  1  0.22730000  0.38090000  0.14580000  1
  C  C139  1  0.22820000  0.47810000  0.92700000  1
  C  C140  1  0.23230000  0.77420000  0.77962000  1
  C  C141  1  0.23260000  0.61390000  0.98344000  1
  C  C142  1  0.23390000  0.76850000  0.93006000  1
  C  C143  1  0.23510000  0.69140000  0.00624000  1
  C  C144  1  0.23510000  0.76510000  0.98355000  1
  C  C145  1  0.23570000  0.04270000  0.92420000  1
  C  C146  1  0.23590000  0.68790000  0.05518000  1
  C  C147  1  0.23590000  0.83520000  0.00985000  1
  C  C148  1  0.23660000  0.75800000  0.08143000  1
  C  C149  1  0.23660000  0.83170000  0.05877000  1
  C  C150  1  0.23870000  0.11910000  0.89060000  1
  C  C151  1  0.24130000  0.39640000  0.89960000  1
  C  C152  1  0.24150000  0.91060000  0.98359000  1
  C  C153  1  0.24270000  0.86730000  0.66240000  1
  C  C154  1  0.24400000  0.91150000  0.08670000  1
  C  C155  1  0.24700000  0.05570000  0.13540000  1
  C  C156  1  0.25300000  0.94430000  0.63540000  1
  C  C157  1  0.25600000  0.08850000  0.58670000  1
  C  C158  1  0.25730000  0.13270000  0.16240000  1
  C  C159  1  0.25850000  0.08940000  0.48359000  1
  C  C160  1  0.25870000  0.60360000  0.39960000  1
  C  C161  1  0.26130000  0.88090000  0.39060000  1
  C  C162  1  0.26340000  0.16830000  0.55877000  1
  C  C163  1  0.26340000  0.24200000  0.58143000  1
  C  C164  1  0.26410000  0.16480000  0.50985000  1
  C  C165  1  0.26410000  0.31210000  0.55518000  1
  C  C166  1  0.26430000  0.95730000  0.42420000  1
  C  C167  1  0.26490000  0.23490000  0.48355000  1
  C  C168  1  0.26490000  0.30860000  0.50624000  1
  C  C169  1  0.26610000  0.23150000  0.43006000  1
  C  C170  1  0.26740000  0.38610000  0.48344000  1
  C  C171  1  0.26770000  0.22580000  0.27962000  1
  C  C172  1  0.27180000  0.52190000  0.42700000  1
  C  C173  1  0.27270000  0.61910000  0.64580000  1
  C  C174  1  0.27380000  0.54150000  0.62250000  1
  C  C175  1  0.27510000  0.39130000  0.58060000  1
  C  C176  1  0.27650000  0.23290000  0.33221000  1
  C  C177  1  0.28380000  0.24210000  0.63556000  1
  C  C178  1  0.28730000  0.73630000  0.21398000  1
  C  C179  1  0.30620000  0.73840000  0.16561000  1
  C  C180  1  0.31830000  0.24810000  0.73281000  1
  C  C181  1  0.32310000  0.79340000  0.85474000  1
  C  C182  1  0.32840000  0.56970000  0.08779000  1
  C  C183  1  0.32870000  0.79410000  0.90367000  1
  C  C184  1  0.32970000  0.49460000  0.10880000  1
  C  C185  1  0.33040000  0.52230000  0.93137000  1
  C  C186  1  0.33240000  0.58990000  0.95983000  1
  C  C187  1  0.33680000  0.02520000  0.94930000  1
  C  C188  1  0.33970000  0.95920000  0.97914000  1
  C  C189  1  0.34450000  0.25900000  0.78230000  1
  C  C190  1  0.34740000  0.93990000  0.10576000  1
  C  C191  1  0.34890000  0.01200000  0.13010000  1
  C  C192  1  0.35640000  0.97270000  0.61640000  1
  C  C193  1  0.35760000  0.07250000  0.45794000  1
  C  C194  1  0.35790000  0.04480000  0.59200000  1
  C  C195  1  0.36060000  0.00660000  0.42810000  1
  C  C196  1  0.36660000  0.25720000  0.40757000  1
  C  C197  1  0.36920000  0.43080000  0.47917000  1
  C  C198  1  0.37110000  0.49850000  0.45070000  1
  C  C199  1  0.37220000  0.25790000  0.35864000  1
  C  C200  1  0.37900000  0.50210000  0.61500000  1
  C  C201  1  0.38030000  0.42700000  0.59401000  1
  C  C202  1  0.39410000  0.22540000  0.65325000  1
  C  C203  1  0.41300000  0.22750000  0.70161000  1
  C  C204  1  0.58700000  0.72750000  0.79839000  1
  C  C205  1  0.60590000  0.72540000  0.84675000  1
  C  C206  1  0.61970000  0.92700000  0.90599000  1
  C  C207  1  0.62100000  0.00210000  0.88500000  1
  C  C208  1  0.62780000  0.75790000  0.14136000  1
  C  C209  1  0.62890000  0.99850000  0.04930000  1
  C  C210  1  0.63080000  0.93080000  0.02083000  1
  C  C211  1  0.63340000  0.75720000  0.09243000  1
  C  C212  1  0.63940000  0.50660000  0.07190000  1
  C  C213  1  0.64210000  0.54480000  0.90800000  1
  C  C214  1  0.64240000  0.57250000  0.04206000  1
  C  C215  1  0.64360000  0.47270000  0.88360000  1
  C  C216  1  0.65110000  0.51200000  0.36990000  1
  C  C217  1  0.65260000  0.43990000  0.39424000  1
  C  C218  1  0.65550000  0.75900000  0.71770000  1
  C  C219  1  0.66030000  0.45920000  0.52086000  1
  C  C220  1  0.66320000  0.52520000  0.55070000  1
  C  C221  1  0.66760000  0.08990000  0.54017000  1
  C  C222  1  0.66960000  0.02230000  0.56863000  1
  C  C223  1  0.67030000  0.99460000  0.39120000  1
  C  C224  1  0.67130000  0.29410000  0.59633000  1
  C  C225  1  0.67160000  0.06970000  0.41221000  1
  C  C226  1  0.67690000  0.29340000  0.64526000  1
  C  C227  1  0.68170000  0.74810000  0.76719000  1
  C  C228  1  0.69380000  0.23840000  0.33439000  1
  C  C229  1  0.71270000  0.23630000  0.28602000  1
  C  C230  1  0.71620000  0.74210000  0.86444000  1
  C  C231  1  0.72350000  0.73290000  0.16779000  1
  C  C232  1  0.72490000  0.89130000  0.91940000  1
  C  C233  1  0.72620000  0.04150000  0.87750000  1
  C  C234  1  0.72730000  0.11910000  0.85420000  1
  C  C235  1  0.72820000  0.02190000  0.07300000  1
  C  C236  1  0.73230000  0.72580000  0.22038000  1
  C  C237  1  0.73260000  0.88610000  0.01656000  1
  C  C238  1  0.73390000  0.73150000  0.06994000  1
  C  C239  1  0.73510000  0.73490000  0.01645000  1
  C  C240  1  0.73510000  0.80860000  0.99376000  1
  C  C241  1  0.73570000  0.45730000  0.07580000  1
  C  C242  1  0.73590000  0.66480000  0.99015000  1
  C  C243  1  0.73590000  0.81210000  0.94482000  1
  C  C244  1  0.73660000  0.66830000  0.94123000  1
  C  C245  1  0.73660000  0.74200000  0.91857000  1
  C  C246  1  0.73870000  0.38090000  0.10940000  1
  C  C247  1  0.74130000  0.10360000  0.10040000  1
  C  C248  1  0.74150000  0.58940000  0.01641000  1
  C  C249  1  0.74270000  0.63270000  0.33760000  1
  C  C250  1  0.74400000  0.58850000  0.91330000  1
  C  C251  1  0.74700000  0.44430000  0.86460000  1
  C  C252  1  0.75300000  0.55570000  0.36460000  1
  C  C253  1  0.75600000  0.41150000  0.41330000  1
  C  C254  1  0.75730000  0.36730000  0.83760000  1
  C  C255  1  0.75850000  0.41060000  0.51641000  1
  C  C256  1  0.75870000  0.89640000  0.60040000  1
  C  C257  1  0.76130000  0.61910000  0.60940000  1
  C  C258  1  0.76340000  0.25800000  0.41857000  1
  C  C259  1  0.76340000  0.33170000  0.44123000  1
  C  C260  1  0.76410000  0.18790000  0.44482000  1
  C  C261  1  0.76410000  0.33520000  0.49015000  1
  C  C262  1  0.76430000  0.54270000  0.57580000  1
  C  C263  1  0.76490000  0.19140000  0.49376000  1
  C  C264  1  0.76490000  0.26510000  0.51645000  1
  C  C265  1  0.76610000  0.26850000  0.56994000  1
  C  C266  1  0.76740000  0.11390000  0.51656000  1
  C  C267  1  0.76770000  0.27420000  0.72038000  1
  C  C268  1  0.77180000  0.97810000  0.57300000  1
  C  C269  1  0.77270000  0.88090000  0.35420000  1
  C  C270  1  0.77380000  0.95850000  0.37750000  1
  C  C271  1  0.77510000  0.10870000  0.41940000  1
  C  C272  1  0.77650000  0.26710000  0.66779000  1
  C  C273  1  0.78380000  0.25790000  0.36444000  1
  C  C274  1  0.78730000  0.76370000  0.78602000  1
  C  C275  1  0.80620000  0.76160000  0.83439000  1
  C  C276  1  0.81830000  0.25190000  0.26719000  1
  C  C277  1  0.82310000  0.70660000  0.14526000  1
  C  C278  1  0.82840000  0.93030000  0.91221000  1
  C  C279  1  0.82870000  0.70590000  0.09633000  1
  C  C280  1  0.82970000  0.00540000  0.89120000  1
  C  C281  1  0.83040000  0.97770000  0.06863000  1
  C  C282  1  0.83240000  0.91010000  0.04017000  1
  C  C283  1  0.83680000  0.47480000  0.05070000  1
  C  C284  1  0.83970000  0.54080000  0.02086000  1
  C  C285  1  0.84450000  0.24100000  0.21770000  1
  C  C286  1  0.84740000  0.56010000  0.89424000  1
  C  C287  1  0.84890000  0.48800000  0.86990000  1
  C  C288  1  0.85640000  0.52730000  0.38360000  1
  C  C289  1  0.85760000  0.42750000  0.54206000  1
  C  C290  1  0.85790000  0.45520000  0.40800000  1
  C  C291  1  0.86060000  0.49340000  0.57190000  1
  C  C292  1  0.86660000  0.24280000  0.59243000  1
  C  C293  1  0.86920000  0.06920000  0.52083000  1
  C  C294  1  0.87110000  0.00150000  0.54930000  1
  C  C295  1  0.87220000  0.24210000  0.64136000  1
  C  C296  1  0.87900000  0.99790000  0.38500000  1
  C  C297  1  0.88030000  0.07300000  0.40599000  1
  C  C298  1  0.89410000  0.27460000  0.34675000  1
  C  C299  1  0.91300000  0.27250000  0.29839000  1
  O  O300  1  0.05020000  0.74830000  0.29824000  1
  O  O301  1  0.12880000  0.34310000  0.14890000  1
  O  O302  1  0.13650000  0.74970000  0.76050000  1
  O  O303  1  0.13910000  0.12630000  0.87000000  1
  O  O304  1  0.14930000  0.84320000  0.67690000  1
  O  O305  1  0.15360000  0.34890000  0.90760000  1
  O  O306  1  0.16310000  0.17620000  0.16180000  1
  O  O307  1  0.17330000  0.84310000  0.38690000  1
  O  O308  1  0.17400000  0.62400000  0.37710000  1
  O  O309  1  0.17790000  0.21210000  0.25805000  1
  O  O310  1  0.18220000  0.64840000  0.66040000  1
  O  O311  1  0.23750000  0.73690000  0.30954000  1
  O  O312  1  0.26250000  0.26310000  0.80954000  1
  O  O313  1  0.31780000  0.35160000  0.16040000  1
  O  O314  1  0.32210000  0.78790000  0.75805000  1
  O  O315  1  0.32600000  0.37600000  0.87710000  1
  O  O316  1  0.32670000  0.15690000  0.88690000  1
  O  O317  1  0.33690000  0.82380000  0.66180000  1
  O  O318  1  0.34640000  0.65110000  0.40760000  1
  O  O319  1  0.35070000  0.15680000  0.17690000  1
  O  O320  1  0.36090000  0.87370000  0.37000000  1
  O  O321  1  0.36350000  0.25030000  0.26050000  1
  O  O322  1  0.37120000  0.65690000  0.64890000  1
  O  O323  1  0.44980000  0.25170000  0.79824000  1
  O  O324  1  0.55020000  0.75170000  0.70176000  1
  O  O325  1  0.62880000  0.15690000  0.85110000  1
  O  O326  1  0.63650000  0.75030000  0.23950000  1
  O  O327  1  0.63910000  0.37370000  0.13000000  1
  O  O328  1  0.64930000  0.65680000  0.32310000  1
  O  O329  1  0.65360000  0.15110000  0.09240000  1
  O  O330  1  0.66310000  0.32380000  0.83820000  1
  O  O331  1  0.67330000  0.65690000  0.61310000  1
  O  O332  1  0.67400000  0.87600000  0.62290000  1
  O  O333  1  0.67790000  0.28790000  0.74195000  1
  O  O334  1  0.68220000  0.85160000  0.33960000  1
  O  O335  1  0.73750000  0.76310000  0.69046000  1
  O  O336  1  0.76250000  0.23690000  0.19046000  1
  O  O337  1  0.81780000  0.14840000  0.83960000  1
  O  O338  1  0.82210000  0.71210000  0.24195000  1
  O  O339  1  0.82600000  0.12400000  0.12290000  1
  O  O340  1  0.82670000  0.34310000  0.11310000  1
  O  O341  1  0.83690000  0.67620000  0.33820000  1
  O  O342  1  0.84640000  0.84890000  0.59240000  1
  O  O343  1  0.85070000  0.34320000  0.82310000  1
  O  O344  1  0.86090000  0.62630000  0.63000000  1
  O  O345  1  0.86350000  0.24970000  0.73950000  1
  O  O346  1  0.87120000  0.84310000  0.35110000  1
  O  O347  1  0.94980000  0.24830000  0.20176000  1
