# generated using pymatgen
data_Cu2H4C8SO8
_symmetry_space_group_name_H-M   'P 1'
_cell_length_a   7.33360000
_cell_length_b   10.12520000
_cell_length_c   18.18290000
_cell_angle_alpha   90.00000000
_cell_angle_beta   90.00000000
_cell_angle_gamma   94.49300000
_symmetry_Int_Tables_number   1
_chemical_formula_structural   Cu2H4C8SO8
_chemical_formula_sum   'Cu8 H16 C32 S4 O32'
_cell_volume   1346.00693942
_cell_formula_units_Z   4
loop_
 _symmetry_equiv_pos_site_id
 _symmetry_equiv_pos_as_xyz
  1  'x, y, z'
loop_
 _atom_site_type_symbol
 _atom_site_label
 _atom_site_symmetry_multiplicity
 _atom_site_fract_x
 _atom_site_fract_y
 _atom_site_fract_z
 _atom_site_occupancy
  Cu  Cu0  1  0.04748000  0.93336000  0.93158000  1
  Cu  Cu1  1  0.13323000  0.78208000  0.09376000  1
  Cu  Cu2  1  0.36677000  0.71792000  0.59376000  1
  Cu  Cu3  1  0.45252000  0.56664000  0.43158000  1
  Cu  Cu4  1  0.54748000  0.43336000  0.56842000  1
  Cu  Cu5  1  0.63323000  0.28208000  0.40624000  1
  Cu  Cu6  1  0.86677000  0.21792000  0.90624000  1
  Cu  Cu7  1  0.95252000  0.06664000  0.06842000  1
  H  H8  1  0.05490000  0.20140000  0.29320000  1
  H  H9  1  0.21360000  0.83240000  0.30640000  1
  H  H10  1  0.21870000  0.06100000  0.48700000  1
  H  H11  1  0.23000000  0.97900000  0.03600000  1
  H  H12  1  0.27000000  0.52100000  0.53600000  1
  H  H13  1  0.28130000  0.43900000  0.98700000  1
  H  H14  1  0.28640000  0.66760000  0.80640000  1
  H  H15  1  0.44510000  0.29860000  0.79320000  1
  H  H16  1  0.55490000  0.70140000  0.20680000  1
  H  H17  1  0.71360000  0.33240000  0.19360000  1
  H  H18  1  0.71870000  0.56100000  0.01300000  1
  H  H19  1  0.73000000  0.47900000  0.46400000  1
  H  H20  1  0.77000000  0.02100000  0.96400000  1
  H  H21  1  0.78130000  0.93900000  0.51300000  1
  H  H22  1  0.78640000  0.16760000  0.69360000  1
  H  H23  1  0.94510000  0.79860000  0.70680000  1
  C  C24  1  0.09380000  0.98940000  0.20710000  1
  C  C25  1  0.09800000  0.13270000  0.32050000  1
  C  C26  1  0.12750000  0.01410000  0.28700000  1
  C  C27  1  0.13260000  0.14930000  0.39510000  1
  C  C28  1  0.19190000  0.91210000  0.32890000  1
  C  C29  1  0.19560000  0.04850000  0.43710000  1
  C  C30  1  0.20430000  0.68260000  0.94530000  1
  C  C31  1  0.22410000  0.92790000  0.40370000  1
  C  C32  1  0.27590000  0.57210000  0.90370000  1
  C  C33  1  0.29570000  0.81740000  0.44530000  1
  C  C34  1  0.30440000  0.45150000  0.93710000  1
  C  C35  1  0.30810000  0.58790000  0.82890000  1
  C  C36  1  0.36740000  0.35070000  0.89510000  1
  C  C37  1  0.37250000  0.48590000  0.78700000  1
  C  C38  1  0.40200000  0.36730000  0.82050000  1
  C  C39  1  0.40620000  0.51060000  0.70710000  1
  C  C40  1  0.59380000  0.48940000  0.29290000  1
  C  C41  1  0.59800000  0.63270000  0.17950000  1
  C  C42  1  0.62750000  0.51410000  0.21300000  1
  C  C43  1  0.63260000  0.64930000  0.10490000  1
  C  C44  1  0.69190000  0.41210000  0.17110000  1
  C  C45  1  0.69560000  0.54850000  0.06290000  1
  C  C46  1  0.70430000  0.18260000  0.55470000  1
  C  C47  1  0.72410000  0.42790000  0.09630000  1
  C  C48  1  0.77590000  0.07210000  0.59630000  1
  C  C49  1  0.79570000  0.31740000  0.05470000  1
  C  C50  1  0.80440000  0.95150000  0.56290000  1
  C  C51  1  0.80810000  0.08790000  0.67110000  1
  C  C52  1  0.86740000  0.85070000  0.60490000  1
  C  C53  1  0.87250000  0.98590000  0.71300000  1
  C  C54  1  0.90200000  0.86730000  0.67950000  1
  C  C55  1  0.90620000  0.01060000  0.79290000  1
  S  S56  1  0.11616000  0.30802000  0.43399000  1
  S  S57  1  0.38384000  0.19198000  0.93399000  1
  S  S58  1  0.61616000  0.80802000  0.06601000  1
  S  S59  1  0.88384000  0.69198000  0.56601000  1
  O  O60  1  0.04750000  0.08450000  0.16812000  1
  O  O61  1  0.05070000  0.64360000  0.59533000  1
  O  O62  1  0.11550000  0.87490000  0.18544000  1
  O  O63  1  0.11790000  0.29630000  0.51287000  1
  O  O64  1  0.12840000  0.94340000  0.03485000  1
  O  O65  1  0.15920000  0.66320000  0.01144000  1
  O  O66  1  0.19390000  0.78990000  0.90980000  1
  O  O67  1  0.22540000  0.11560000  0.90470000  1
  O  O68  1  0.27460000  0.38440000  0.40470000  1
  O  O69  1  0.30610000  0.71010000  0.40980000  1
  O  O70  1  0.34080000  0.83680000  0.51144000  1
  O  O71  1  0.37160000  0.55660000  0.53485000  1
  O  O72  1  0.38210000  0.20370000  0.01287000  1
  O  O73  1  0.38450000  0.62510000  0.68544000  1
  O  O74  1  0.44930000  0.85640000  0.09533000  1
  O  O75  1  0.45250000  0.41550000  0.66812000  1
  O  O76  1  0.54750000  0.58450000  0.33188000  1
  O  O77  1  0.55070000  0.14360000  0.90467000  1
  O  O78  1  0.61550000  0.37490000  0.31456000  1
  O  O79  1  0.61790000  0.79630000  0.98713000  1
  O  O80  1  0.62840000  0.44340000  0.46515000  1
  O  O81  1  0.65920000  0.16320000  0.48856000  1
  O  O82  1  0.69390000  0.28990000  0.59020000  1
  O  O83  1  0.72540000  0.61560000  0.59530000  1
  O  O84  1  0.77460000  0.88440000  0.09530000  1
  O  O85  1  0.80610000  0.21010000  0.09020000  1
  O  O86  1  0.84080000  0.33680000  0.98856000  1
  O  O87  1  0.87160000  0.05660000  0.96515000  1
  O  O88  1  0.88210000  0.70370000  0.48713000  1
  O  O89  1  0.88450000  0.12510000  0.81456000  1
  O  O90  1  0.94930000  0.35640000  0.40467000  1
  O  O91  1  0.95250000  0.91550000  0.83188000  1
