# generated using pymatgen
data_Gd2H9(C4O3)5
_symmetry_space_group_name_H-M   'P 1'
_cell_length_a   7.39910000
_cell_length_b   11.47300000
_cell_length_c   16.23350000
_cell_angle_alpha   79.03800000
_cell_angle_beta   82.58800000
_cell_angle_gamma   79.97200000
_symmetry_Int_Tables_number   1
_chemical_formula_structural   Gd2H9(C4O3)5
_chemical_formula_sum   'Gd4 H18 C40 O30'
_cell_volume   1325.67645572
_cell_formula_units_Z   2
loop_
 _symmetry_equiv_pos_site_id
 _symmetry_equiv_pos_as_xyz
  1  'x, y, z'
loop_
 _atom_site_type_symbol
 _atom_site_label
 _atom_site_symmetry_multiplicity
 _atom_site_fract_x
 _atom_site_fract_y
 _atom_site_fract_z
 _atom_site_occupancy
  Gd  Gd0  1  0.05583000  0.93622000  0.22734000  1
  Gd  Gd1  1  0.44670000  0.26273000  0.76355000  1
  Gd  Gd2  1  0.55330000  0.73727000  0.23645000  1
  Gd  Gd3  1  0.94417000  0.06378000  0.77266000  1
  H  H4  1  0.00230000  0.79140000  0.03390000  1
  H  H5  1  0.12290000  0.61210000  0.89500000  1
  H  H6  1  0.15320000  0.12770000  0.40600000  1
  H  H7  1  0.15810000  0.74240000  0.44020000  1
  H  H8  1  0.20390000  0.95640000  0.02890000  1
  H  H9  1  0.22380000  0.50210000  0.58740000  1
  H  H10  1  0.35080000  0.46150000  0.15370000  1
  H  H11  1  0.39340000  0.17890000  0.54820000  1
  H  H12  1  0.43410000  0.27120000  0.01990000  1
  H  H13  1  0.56590000  0.72880000  0.98010000  1
  H  H14  1  0.60660000  0.82110000  0.45180000  1
  H  H15  1  0.64920000  0.53850000  0.84630000  1
  H  H16  1  0.77620000  0.49790000  0.41260000  1
  H  H17  1  0.79610000  0.04360000  0.97110000  1
  H  H18  1  0.84190000  0.25760000  0.55980000  1
  H  H19  1  0.84680000  0.87230000  0.59400000  1
  H  H20  1  0.87710000  0.38790000  0.10500000  1
  H  H21  1  0.99770000  0.20860000  0.96610000  1
  C  C22  1  0.03420000  0.40600000  0.56650000  1
  C  C23  1  0.07410000  0.30530000  0.64040000  1
  C  C24  1  0.09950000  0.59460000  0.48530000  1
  C  C25  1  0.12880000  0.64980000  0.01090000  1
  C  C26  1  0.13430000  0.50100000  0.55230000  1
  C  C27  1  0.16460000  0.58090000  0.94750000  1
  C  C28  1  0.18900000  0.68670000  0.15190000  1
  C  C29  1  0.20400000  0.60770000  0.08770000  1
  C  C30  1  0.25460000  0.03290000  0.87250000  1
  C  C31  1  0.26190000  0.46630000  0.96220000  1
  C  C32  1  0.29910000  0.39360000  0.89310000  1
  C  C33  1  0.30200000  0.49100000  0.10240000  1
  C  C34  1  0.32400000  0.97330000  0.01780000  1
  C  C35  1  0.32650000  0.41970000  0.04110000  1
  C  C36  1  0.33070000  0.93480000  0.36700000  1
  C  C37  1  0.35020000  0.07820000  0.46660000  1
  C  C38  1  0.38810000  0.01590000  0.93510000  1
  C  C39  1  0.41480000  0.97010000  0.43610000  1
  C  C40  1  0.43240000  0.95470000  0.08540000  1
  C  C41  1  0.43590000  0.10680000  0.52900000  1
  C  C42  1  0.56410000  0.89320000  0.47100000  1
  C  C43  1  0.56760000  0.04530000  0.91460000  1
  C  C44  1  0.58520000  0.02990000  0.56390000  1
  C  C45  1  0.61190000  0.98410000  0.06490000  1
  C  C46  1  0.64980000  0.92180000  0.53340000  1
  C  C47  1  0.66930000  0.06520000  0.63300000  1
  C  C48  1  0.67350000  0.58030000  0.95890000  1
  C  C49  1  0.67600000  0.02670000  0.98220000  1
  C  C50  1  0.69800000  0.50900000  0.89760000  1
  C  C51  1  0.70090000  0.60640000  0.10690000  1
  C  C52  1  0.73810000  0.53370000  0.03780000  1
  C  C53  1  0.74540000  0.96710000  0.12750000  1
  C  C54  1  0.79600000  0.39230000  0.91230000  1
  C  C55  1  0.81100000  0.31330000  0.84810000  1
  C  C56  1  0.83540000  0.41910000  0.05250000  1
  C  C57  1  0.86570000  0.49900000  0.44770000  1
  C  C58  1  0.87120000  0.35020000  0.98910000  1
  C  C59  1  0.90050000  0.40540000  0.51470000  1
  C  C60  1  0.92590000  0.69470000  0.35960000  1
  C  C61  1  0.96580000  0.59400000  0.43350000  1
  O  O62  1  0.01550000  0.75640000  0.99350000  1
  O  O63  1  0.01870000  0.77980000  0.34550000  1
  O  O64  1  0.07130000  0.78130000  0.14560000  1
  O  O65  1  0.11600000  0.97890000  0.88870000  1
  O  O66  1  0.19200000  0.00270000  0.33760000  1
  O  O67  1  0.19720000  0.31340000  0.68360000  1
  O  O68  1  0.20540000  0.68450000  0.47250000  1
  O  O69  1  0.20590000  0.15870000  0.43560000  1
  O  O70  1  0.26260000  0.43850000  0.81880000  1
  O  O71  1  0.27160000  0.10420000  0.80100000  1
  O  O72  1  0.29540000  0.65850000  0.21010000  1
  O  O73  1  0.36580000  0.91050000  0.16480000  1
  O  O74  1  0.37920000  0.28460000  0.90950000  1
  O  O75  1  0.39830000  0.83860000  0.34210000  1
  O  O76  1  0.42400000  0.30550000  0.06060000  1
  O  O77  1  0.57600000  0.69450000  0.93940000  1
  O  O78  1  0.60170000  0.16140000  0.65790000  1
  O  O79  1  0.62080000  0.71540000  0.09050000  1
  O  O80  1  0.63420000  0.08950000  0.83520000  1
  O  O81  1  0.70460000  0.34150000  0.78990000  1
  O  O82  1  0.72840000  0.89580000  0.19900000  1
  O  O83  1  0.73740000  0.56150000  0.18120000  1
  O  O84  1  0.79410000  0.84130000  0.56440000  1
  O  O85  1  0.79460000  0.31550000  0.52750000  1
  O  O86  1  0.80280000  0.68660000  0.31640000  1
  O  O87  1  0.80800000  0.99730000  0.66240000  1
  O  O88  1  0.88400000  0.02110000  0.11130000  1
  O  O89  1  0.92870000  0.21870000  0.85440000  1
  O  O90  1  0.98130000  0.22020000  0.65450000  1
  O  O91  1  0.98450000  0.24360000  0.00650000  1
