# generated using pymatgen
data_Zn2H9(C3O)8
_symmetry_space_group_name_H-M   'P 1'
_cell_length_a   11.07800000
_cell_length_b   16.01200000
_cell_length_c   23.80400000
_cell_angle_alpha   90.00000000
_cell_angle_beta   95.33300000
_cell_angle_gamma   90.00000000
_symmetry_Int_Tables_number   1
_chemical_formula_structural   Zn2H9(C3O)8
_chemical_formula_sum   'Zn8 H36 C96 O32'
_cell_volume   4204.09853497
_cell_formula_units_Z   4
loop_
 _symmetry_equiv_pos_site_id
 _symmetry_equiv_pos_as_xyz
  1  'x, y, z'
loop_
 _atom_site_type_symbol
 _atom_site_label
 _atom_site_symmetry_multiplicity
 _atom_site_fract_x
 _atom_site_fract_y
 _atom_site_fract_z
 _atom_site_occupancy
  Zn  Zn0  1  0.04730000  0.51772000  0.84704000  1
  Zn  Zn1  1  0.04730000  0.98228000  0.34704000  1
  Zn  Zn2  1  0.15349000  0.15789000  0.74084000  1
  Zn  Zn3  1  0.15349000  0.34211000  0.24084000  1
  Zn  Zn4  1  0.84651000  0.65789000  0.75916000  1
  Zn  Zn5  1  0.84651000  0.84211000  0.25916000  1
  Zn  Zn6  1  0.95270000  0.01772000  0.65296000  1
  Zn  Zn7  1  0.95270000  0.48228000  0.15296000  1
  H  H8  1  0.06980000  0.69640000  0.24640000  1
  H  H9  1  0.06980000  0.80360000  0.74640000  1
  H  H10  1  0.11160000  0.07960000  0.50480000  1
  H  H11  1  0.11160000  0.42040000  0.00480000  1
  H  H12  1  0.23110000  0.50490000  0.41470000  1
  H  H13  1  0.23110000  0.99510000  0.91470000  1
  H  H14  1  0.24420000  0.11600000  0.96000000  1
  H  H15  1  0.24420000  0.38400000  0.46000000  1
  H  H16  1  0.27620000  0.73180000  0.88410000  1
  H  H17  1  0.27620000  0.76820000  0.38410000  1
  H  H18  1  0.29630000  0.24560000  0.60410000  1
  H  H19  1  0.29630000  0.25440000  0.10410000  1
  H  H20  1  0.30260000  0.53490000  0.32710000  1
  H  H21  1  0.30260000  0.96510000  0.82710000  1
  H  H22  1  0.32890000  0.24720000  0.43890000  1
  H  H23  1  0.32890000  0.25280000  0.93890000  1
  H  H24  1  0.48590000  0.73590000  0.40410000  1
  H  H25  1  0.48590000  0.76410000  0.90410000  1
  H  H26  1  0.51410000  0.23590000  0.09590000  1
  H  H27  1  0.51410000  0.26410000  0.59590000  1
  H  H28  1  0.67110000  0.74720000  0.06110000  1
  H  H29  1  0.67110000  0.75280000  0.56110000  1
  H  H30  1  0.69740000  0.03490000  0.17290000  1
  H  H31  1  0.69740000  0.46510000  0.67290000  1
  H  H32  1  0.70370000  0.74560000  0.89590000  1
  H  H33  1  0.70370000  0.75440000  0.39590000  1
  H  H34  1  0.72380000  0.23180000  0.61590000  1
  H  H35  1  0.72380000  0.26820000  0.11590000  1
  H  H36  1  0.75580000  0.61600000  0.54000000  1
  H  H37  1  0.75580000  0.88400000  0.04000000  1
  H  H38  1  0.76890000  0.00490000  0.08530000  1
  H  H39  1  0.76890000  0.49510000  0.58530000  1
  H  H40  1  0.88840000  0.57960000  0.99520000  1
  H  H41  1  0.88840000  0.92040000  0.49520000  1
  H  H42  1  0.93020000  0.19640000  0.25360000  1
  H  H43  1  0.93020000  0.30360000  0.75360000  1
  C  C44  1  0.11480000  0.66800000  0.80540000  1
  C  C45  1  0.11480000  0.83200000  0.30540000  1
  C  C46  1  0.12890000  0.53490000  0.24220000  1
  C  C47  1  0.12890000  0.96510000  0.74220000  1
  C  C48  1  0.12940000  0.68470000  0.27550000  1
  C  C49  1  0.12940000  0.81530000  0.77550000  1
  C  C50  1  0.13610000  0.12780000  0.61180000  1
  C  C51  1  0.13610000  0.37220000  0.11180000  1
  C  C52  1  0.16630000  0.12370000  0.50940000  1
  C  C53  1  0.16630000  0.37630000  0.00940000  1
  C  C54  1  0.16780000  0.74560000  0.31160000  1
  C  C55  1  0.16780000  0.75440000  0.81160000  1
  C  C56  1  0.17650000  0.60500000  0.28070000  1
  C  C57  1  0.17650000  0.89500000  0.78070000  1
  C  C58  1  0.18440000  0.12050000  0.40440000  1
  C  C59  1  0.18440000  0.37950000  0.90440000  1
  C  C60  1  0.19540000  0.15680000  0.56150000  1
  C  C61  1  0.19540000  0.34320000  0.06150000  1
  C  C62  1  0.21800000  0.15550000  0.46300000  1
  C  C63  1  0.21800000  0.34450000  0.96300000  1
  C  C64  1  0.25250000  0.72680000  0.35800000  1
  C  C65  1  0.25250000  0.77320000  0.85800000  1
  C  C66  1  0.26600000  0.58720000  0.32480000  1
  C  C67  1  0.26600000  0.91280000  0.82480000  1
  C  C68  1  0.27700000  0.22320000  0.56830000  1
  C  C69  1  0.27700000  0.27680000  0.06830000  1
  C  C70  1  0.29750000  0.22370000  0.47020000  1
  C  C71  1  0.29750000  0.27630000  0.97020000  1
  C  C72  1  0.30000000  0.64760000  0.36480000  1
  C  C73  1  0.30000000  0.85240000  0.86480000  1
  C  C74  1  0.30100000  0.00680000  0.93810000  1
  C  C75  1  0.30100000  0.49320000  0.43810000  1
  C  C76  1  0.30800000  0.07840000  0.96570000  1
  C  C77  1  0.30800000  0.42160000  0.46570000  1
  C  C78  1  0.32940000  0.24380000  0.02320000  1
  C  C79  1  0.32940000  0.25620000  0.52320000  1
  C  C80  1  0.39590000  0.62940000  0.41210000  1
  C  C81  1  0.39590000  0.87060000  0.91210000  1
  C  C82  1  0.39860000  0.55470000  0.44289000  1
  C  C83  1  0.39860000  0.94530000  0.94289000  1
  C  C84  1  0.41030000  0.10020000  0.00410000  1
  C  C85  1  0.41030000  0.39980000  0.50410000  1
  C  C86  1  0.41800000  0.17520000  0.03290000  1
  C  C87  1  0.41800000  0.32480000  0.53290000  1
  C  C88  1  0.48740000  0.68660000  0.42490000  1
  C  C89  1  0.48740000  0.81340000  0.92490000  1
  C  C90  1  0.49740000  0.53930000  0.48410000  1
  C  C91  1  0.49740000  0.96070000  0.98410000  1
  C  C92  1  0.50260000  0.03930000  0.01590000  1
  C  C93  1  0.50260000  0.46070000  0.51590000  1
  C  C94  1  0.51260000  0.18660000  0.07510000  1
  C  C95  1  0.51260000  0.31340000  0.57510000  1
  C  C96  1  0.58200000  0.67520000  0.46710000  1
  C  C97  1  0.58200000  0.82480000  0.96710000  1
  C  C98  1  0.58970000  0.60020000  0.49590000  1
  C  C99  1  0.58970000  0.89980000  0.99590000  1
  C  C100  1  0.60140000  0.05470000  0.05711000  1
  C  C101  1  0.60140000  0.44530000  0.55711000  1
  C  C102  1  0.60410000  0.12940000  0.08790000  1
  C  C103  1  0.60410000  0.37060000  0.58790000  1
  C  C104  1  0.67060000  0.74380000  0.47680000  1
  C  C105  1  0.67060000  0.75620000  0.97680000  1
  C  C106  1  0.69200000  0.57840000  0.53430000  1
  C  C107  1  0.69200000  0.92160000  0.03430000  1
  C  C108  1  0.69900000  0.50680000  0.56190000  1
  C  C109  1  0.69900000  0.99320000  0.06190000  1
  C  C110  1  0.70000000  0.14760000  0.13520000  1
  C  C111  1  0.70000000  0.35240000  0.63520000  1
  C  C112  1  0.70250000  0.72370000  0.02980000  1
  C  C113  1  0.70250000  0.77630000  0.52980000  1
  C  C114  1  0.72300000  0.72320000  0.93170000  1
  C  C115  1  0.72300000  0.77680000  0.43170000  1
  C  C116  1  0.73400000  0.08720000  0.17520000  1
  C  C117  1  0.73400000  0.41280000  0.67520000  1
  C  C118  1  0.74750000  0.22680000  0.14200000  1
  C  C119  1  0.74750000  0.27320000  0.64200000  1
  C  C120  1  0.78200000  0.65550000  0.03700000  1
  C  C121  1  0.78200000  0.84450000  0.53700000  1
  C  C122  1  0.80460000  0.65680000  0.93850000  1
  C  C123  1  0.80460000  0.84320000  0.43850000  1
  C  C124  1  0.81560000  0.62050000  0.09560000  1
  C  C125  1  0.81560000  0.87950000  0.59560000  1
  C  C126  1  0.82350000  0.10500000  0.21930000  1
  C  C127  1  0.82350000  0.39500000  0.71930000  1
  C  C128  1  0.83220000  0.24560000  0.18840000  1
  C  C129  1  0.83220000  0.25440000  0.68840000  1
  C  C130  1  0.83370000  0.62370000  0.99060000  1
  C  C131  1  0.83370000  0.87630000  0.49060000  1
  C  C132  1  0.86390000  0.62780000  0.88820000  1
  C  C133  1  0.86390000  0.87220000  0.38820000  1
  C  C134  1  0.87060000  0.18470000  0.22450000  1
  C  C135  1  0.87060000  0.31530000  0.72450000  1
  C  C136  1  0.87110000  0.03490000  0.25780000  1
  C  C137  1  0.87110000  0.46510000  0.75780000  1
  C  C138  1  0.88520000  0.16800000  0.69460000  1
  C  C139  1  0.88520000  0.33200000  0.19460000  1
  O  O140  1  0.03640000  0.65360000  0.76529000  1
  O  O141  1  0.03640000  0.84640000  0.26529000  1
  O  O142  1  0.03810000  0.55190000  0.20811000  1
  O  O143  1  0.03810000  0.94810000  0.70811000  1
  O  O144  1  0.07520000  0.06160000  0.60483000  1
  O  O145  1  0.07520000  0.43840000  0.10483000  1
  O  O146  1  0.13140000  0.05210000  0.40342000  1
  O  O147  1  0.13140000  0.44790000  0.90342000  1
  O  O148  1  0.15000000  0.61400000  0.84180000  1
  O  O149  1  0.15000000  0.88600000  0.34180000  1
  O  O150  1  0.15260000  0.16860000  0.65738000  1
  O  O151  1  0.15260000  0.33140000  0.15738000  1
  O  O152  1  0.18010000  0.03290000  0.74693000  1
  O  O153  1  0.18010000  0.46710000  0.24693000  1
  O  O154  1  0.19990000  0.16040000  0.36220000  1
  O  O155  1  0.19990000  0.33960000  0.86220000  1
  O  O156  1  0.80010000  0.66040000  0.13780000  1
  O  O157  1  0.80010000  0.83960000  0.63780000  1
  O  O158  1  0.81990000  0.53290000  0.75307000  1
  O  O159  1  0.81990000  0.96710000  0.25307000  1
  O  O160  1  0.84740000  0.66860000  0.84262000  1
  O  O161  1  0.84740000  0.83140000  0.34262000  1
  O  O162  1  0.85000000  0.11400000  0.65820000  1
  O  O163  1  0.85000000  0.38600000  0.15820000  1
  O  O164  1  0.86860000  0.55210000  0.09658000  1
  O  O165  1  0.86860000  0.94790000  0.59658000  1
  O  O166  1  0.92480000  0.56160000  0.89517000  1
  O  O167  1  0.92480000  0.93840000  0.39517000  1
  O  O168  1  0.96190000  0.05190000  0.29189000  1
  O  O169  1  0.96190000  0.44810000  0.79189000  1
  O  O170  1  0.96360000  0.15360000  0.73471000  1
  O  O171  1  0.96360000  0.34640000  0.23471000  1
