# generated using pymatgen
data_U3Cu2P4H16(C7O5)4
_symmetry_space_group_name_H-M   'P 1'
_cell_length_a   9.59500000
_cell_length_b   10.33000000
_cell_length_c   13.67000000
_cell_angle_alpha   75.70200000
_cell_angle_beta   88.85400000
_cell_angle_gamma   65.34500000
_symmetry_Int_Tables_number   1
_chemical_formula_structural   U3Cu2P4H16(C7O5)4
_chemical_formula_sum   'U3 Cu2 P4 H16 C28 O20'
_cell_volume   1187.94323378
_cell_formula_units_Z   1
loop_
 _symmetry_equiv_pos_site_id
 _symmetry_equiv_pos_as_xyz
  1  'x, y, z'
loop_
 _atom_site_type_symbol
 _atom_site_label
 _atom_site_symmetry_multiplicity
 _atom_site_fract_x
 _atom_site_fract_y
 _atom_site_fract_z
 _atom_site_occupancy
  U  U0  1  0.00000000  0.00000000  0.00000000  1
  U  U1  1  0.23419000  0.44979000  0.00052000  1
  U  U2  1  0.76581000  0.55021000  0.99948000  1
  Cu  Cu3  1  0.09792000  0.96519000  0.57957000  1
  Cu  Cu4  1  0.90208000  0.03481000  0.42043000  1
  P  P5  1  0.08980000  0.31140000  0.87525000  1
  P  P6  1  0.37440000  0.68290000  0.08660000  1
  P  P7  1  0.62560000  0.31710000  0.91340000  1
  P  P8  1  0.91020000  0.68860000  0.12475000  1
  H  H9  1  0.06060000  0.58400000  0.74440000  1
  H  H10  1  0.07450000  0.73090000  0.28080000  1
  H  H11  1  0.19970000  0.35420000  0.50560000  1
  H  H12  1  0.20160000  0.58380000  0.43780000  1
  H  H13  1  0.23170000  0.85170000  0.22740000  1
  H  H14  1  0.30350000  0.51630000  0.59660000  1
  H  H15  1  0.36860000  0.50620000  0.76180000  1
  H  H16  1  0.47980000  0.34570000  0.51480000  1
  H  H17  1  0.52020000  0.65430000  0.48520000  1
  H  H18  1  0.63140000  0.49380000  0.23820000  1
  H  H19  1  0.69650000  0.48370000  0.40340000  1
  H  H20  1  0.76830000  0.14830000  0.77260000  1
  H  H21  1  0.79840000  0.41620000  0.56220000  1
  H  H22  1  0.80030000  0.64580000  0.49440000  1
  H  H23  1  0.92550000  0.26910000  0.71920000  1
  H  H24  1  0.93940000  0.41600000  0.25560000  1
  C  C25  1  0.00840000  0.41290000  0.74720000  1
  C  C26  1  0.00970000  0.54830000  0.70620000  1
  C  C27  1  0.04130000  0.22820000  0.43470000  1
  C  C28  1  0.06110000  0.36690000  0.38920000  1
  C  C29  1  0.07220000  0.63790000  0.30780000  1
  C  C30  1  0.14450000  0.41440000  0.44180000  1
  C  C31  1  0.14680000  0.55050000  0.40060000  1
  C  C32  1  0.23530000  0.85630000  0.41820000  1
  C  C33  1  0.32530000  0.77580000  0.26320000  1
  C  C34  1  0.35890000  0.76460000  0.36550000  1
  C  C35  1  0.39900000  0.44280000  0.63170000  1
  C  C36  1  0.42740000  0.67710000  0.21400000  1
  C  C37  1  0.43680000  0.43430000  0.73050000  1
  C  C38  1  0.49580000  0.65910000  0.41700000  1
  C  C39  1  0.50420000  0.34090000  0.58300000  1
  C  C40  1  0.56320000  0.56570000  0.26950000  1
  C  C41  1  0.57260000  0.32290000  0.78600000  1
  C  C42  1  0.60100000  0.55720000  0.36830000  1
  C  C43  1  0.64110000  0.23540000  0.63450000  1
  C  C44  1  0.67470000  0.22420000  0.73680000  1
  C  C45  1  0.76470000  0.14370000  0.58180000  1
  C  C46  1  0.85320000  0.44950000  0.59940000  1
  C  C47  1  0.85550000  0.58560000  0.55820000  1
  C  C48  1  0.92780000  0.36210000  0.69220000  1
  C  C49  1  0.93890000  0.63310000  0.61080000  1
  C  C50  1  0.95870000  0.77180000  0.56530000  1
  C  C51  1  0.99030000  0.45170000  0.29380000  1
  C  C52  1  0.99160000  0.58710000  0.25280000  1
  O  O53  1  0.00610000  0.41210000  0.94580000  1
  O  O54  1  0.05370000  0.79350000  0.61170000  1
  O  O55  1  0.07130000  0.16740000  0.89730000  1
  O  O56  1  0.09880000  0.92100000  0.37350000  1
  O  O57  1  0.12250000  0.14600000  0.51730000  1
  O  O58  1  0.25270000  0.83930000  0.04140000  1
  O  O59  1  0.25610000  0.28870000  0.88900000  1
  O  O60  1  0.27030000  0.86320000  0.50620000  1
  O  O61  1  0.31280000  0.56610000  0.09660000  1
  O  O62  1  0.48840000  0.34590000  0.97490000  1
  O  O63  1  0.51160000  0.65410000  0.02510000  1
  O  O64  1  0.68720000  0.43390000  0.90340000  1
  O  O65  1  0.72970000  0.13680000  0.49380000  1
  O  O66  1  0.74390000  0.71130000  0.11100000  1
  O  O67  1  0.74730000  0.16070000  0.95860000  1
  O  O68  1  0.87750000  0.85400000  0.48270000  1
  O  O69  1  0.90120000  0.07900000  0.62650000  1
  O  O70  1  0.92870000  0.83260000  0.10270000  1
  O  O71  1  0.94630000  0.20650000  0.38830000  1
  O  O72  1  0.99390000  0.58790000  0.05420000  1
