# generated using pymatgen
data_ZnH8C12(IN2)2
_symmetry_space_group_name_H-M   'P 1'
_cell_length_a   14.02200000
_cell_length_b   28.14000000
_cell_length_c   44.48000000
_cell_angle_alpha   90.00000000
_cell_angle_beta   90.00000000
_cell_angle_gamma   90.00000000
_symmetry_Int_Tables_number   1
_chemical_formula_structural   ZnH8C12(IN2)2
_chemical_formula_sum   'Zn24 H192 C288 I48 N96'
_cell_volume   17550.87747840
_cell_formula_units_Z   24
loop_
 _symmetry_equiv_pos_site_id
 _symmetry_equiv_pos_as_xyz
  1  'x, y, z'
loop_
 _atom_site_type_symbol
 _atom_site_label
 _atom_site_symmetry_multiplicity
 _atom_site_fract_x
 _atom_site_fract_y
 _atom_site_fract_z
 _atom_site_occupancy
  Zn  Zn0  1  0.11707000  0.02323000  0.91502000  1
  Zn  Zn1  1  0.11707000  0.52323000  0.58498000  1
  Zn  Zn2  1  0.14194000  0.05027000  0.58635000  1
  Zn  Zn3  1  0.14194000  0.55027000  0.91365000  1
  Zn  Zn4  1  0.16955000  0.23924000  0.31945000  1
  Zn  Zn5  1  0.16955000  0.73924000  0.18055000  1
  Zn  Zn6  1  0.33045000  0.23924000  0.81945000  1
  Zn  Zn7  1  0.33045000  0.73924000  0.68055000  1
  Zn  Zn8  1  0.35806000  0.05027000  0.08635000  1
  Zn  Zn9  1  0.35806000  0.55027000  0.41365000  1
  Zn  Zn10  1  0.38293000  0.02323000  0.41502000  1
  Zn  Zn11  1  0.38293000  0.52323000  0.08498000  1
  Zn  Zn12  1  0.61707000  0.47677000  0.91502000  1
  Zn  Zn13  1  0.61707000  0.97677000  0.58498000  1
  Zn  Zn14  1  0.64194000  0.44973000  0.58635000  1
  Zn  Zn15  1  0.64194000  0.94973000  0.91365000  1
  Zn  Zn16  1  0.66955000  0.26076000  0.31945000  1
  Zn  Zn17  1  0.66955000  0.76076000  0.18055000  1
  Zn  Zn18  1  0.83045000  0.26076000  0.81945000  1
  Zn  Zn19  1  0.83045000  0.76076000  0.68055000  1
  Zn  Zn20  1  0.85806000  0.44973000  0.08635000  1
  Zn  Zn21  1  0.85806000  0.94973000  0.41365000  1
  Zn  Zn22  1  0.88293000  0.47677000  0.41502000  1
  Zn  Zn23  1  0.88293000  0.97677000  0.08498000  1
  H  H24  1  0.00260000  0.29040000  0.22620000  1
  H  H25  1  0.00260000  0.79040000  0.27380000  1
  H  H26  1  0.02190000  0.46660000  0.46580000  1
  H  H27  1  0.02190000  0.96660000  0.03420000  1
  H  H28  1  0.03090000  0.15890000  0.66720000  1
  H  H29  1  0.03090000  0.65890000  0.83280000  1
  H  H30  1  0.03410000  0.28610000  0.83360000  1
  H  H31  1  0.03410000  0.78610000  0.66640000  1
  H  H32  1  0.03490000  0.41450000  0.67010000  1
  H  H33  1  0.03490000  0.91450000  0.82990000  1
  H  H34  1  0.03610000  0.42420000  0.38190000  1
  H  H35  1  0.03610000  0.92420000  0.11810000  1
  H  H36  1  0.04620000  0.47010000  0.05610000  1
  H  H37  1  0.04620000  0.97010000  0.44390000  1
  H  H38  1  0.05570000  0.08800000  0.64270000  1
  H  H39  1  0.05570000  0.58800000  0.85730000  1
  H  H40  1  0.05600000  0.29680000  0.27510000  1
  H  H41  1  0.05600000  0.79680000  0.22490000  1
  H  H42  1  0.05860000  0.15010000  0.22940000  1
  H  H43  1  0.05860000  0.65010000  0.27060000  1
  H  H44  1  0.06090000  0.48620000  0.64500000  1
  H  H45  1  0.06090000  0.98620000  0.85500000  1
  H  H46  1  0.08490000  0.34700000  0.59260000  1
  H  H47  1  0.08490000  0.84700000  0.90740000  1
  H  H48  1  0.10050000  0.22840000  0.59050000  1
  H  H49  1  0.10050000  0.72840000  0.90950000  1
  H  H50  1  0.11130000  0.41910000  0.56950000  1
  H  H51  1  0.11130000  0.91910000  0.93050000  1
  H  H52  1  0.12380000  0.32630000  0.86950000  1
  H  H53  1  0.12380000  0.82630000  0.63050000  1
  H  H54  1  0.12400000  0.14270000  0.41050000  1
  H  H55  1  0.12400000  0.64270000  0.08950000  1
  H  H56  1  0.12420000  0.09740000  0.47760000  1
  H  H57  1  0.12420000  0.45140000  0.01220000  1
  H  H58  1  0.12420000  0.59740000  0.02240000  1
  H  H59  1  0.12420000  0.95140000  0.48780000  1
  H  H60  1  0.12450000  0.16100000  0.27690000  1
  H  H61  1  0.12450000  0.66100000  0.22310000  1
  H  H62  1  0.13230000  0.15410000  0.56900000  1
  H  H63  1  0.13230000  0.65410000  0.93100000  1
  H  H64  1  0.17910000  0.44030000  0.47500000  1
  H  H65  1  0.17910000  0.94030000  0.02500000  1
  H  H66  1  0.19040000  0.39830000  0.38820000  1
  H  H67  1  0.19040000  0.89830000  0.11180000  1
  H  H68  1  0.19630000  0.08010000  0.52310000  1
  H  H69  1  0.19630000  0.58010000  0.97690000  1
  H  H70  1  0.20450000  0.17790000  0.37180000  1
  H  H71  1  0.20450000  0.67790000  0.12820000  1
  H  H72  1  0.29550000  0.17790000  0.87180000  1
  H  H73  1  0.29550000  0.67790000  0.62820000  1
  H  H74  1  0.30370000  0.08010000  0.02310000  1
  H  H75  1  0.30370000  0.58010000  0.47690000  1
  H  H76  1  0.30960000  0.39830000  0.88820000  1
  H  H77  1  0.30960000  0.89830000  0.61180000  1
  H  H78  1  0.32090000  0.44030000  0.97500000  1
  H  H79  1  0.32090000  0.94030000  0.52500000  1
  H  H80  1  0.36770000  0.15410000  0.06900000  1
  H  H81  1  0.36770000  0.65410000  0.43100000  1
  H  H82  1  0.37550000  0.16100000  0.77690000  1
  H  H83  1  0.37550000  0.66100000  0.72310000  1
  H  H84  1  0.37580000  0.09740000  0.97760000  1
  H  H85  1  0.37580000  0.45140000  0.51220000  1
  H  H86  1  0.37580000  0.59740000  0.52240000  1
  H  H87  1  0.37580000  0.95140000  0.98780000  1
  H  H88  1  0.37600000  0.14270000  0.91050000  1
  H  H89  1  0.37600000  0.64270000  0.58950000  1
  H  H90  1  0.37620000  0.32630000  0.36950000  1
  H  H91  1  0.37620000  0.82630000  0.13050000  1
  H  H92  1  0.38870000  0.41910000  0.06950000  1
  H  H93  1  0.38870000  0.91910000  0.43050000  1
  H  H94  1  0.39950000  0.22840000  0.09050000  1
  H  H95  1  0.39950000  0.72840000  0.40950000  1
  H  H96  1  0.41510000  0.34700000  0.09260000  1
  H  H97  1  0.41510000  0.84700000  0.40740000  1
  H  H98  1  0.43910000  0.48620000  0.14500000  1
  H  H99  1  0.43910000  0.98620000  0.35500000  1
  H  H100  1  0.44140000  0.15010000  0.72940000  1
  H  H101  1  0.44140000  0.65010000  0.77060000  1
  H  H102  1  0.44400000  0.29680000  0.77510000  1
  H  H103  1  0.44400000  0.79680000  0.72490000  1
  H  H104  1  0.44430000  0.08800000  0.14270000  1
  H  H105  1  0.44430000  0.58800000  0.35730000  1
  H  H106  1  0.45380000  0.47010000  0.55610000  1
  H  H107  1  0.45380000  0.97010000  0.94390000  1
  H  H108  1  0.46390000  0.42420000  0.88190000  1
  H  H109  1  0.46390000  0.92420000  0.61810000  1
  H  H110  1  0.46510000  0.41450000  0.17010000  1
  H  H111  1  0.46510000  0.91450000  0.32990000  1
  H  H112  1  0.46590000  0.28610000  0.33360000  1
  H  H113  1  0.46590000  0.78610000  0.16640000  1
  H  H114  1  0.46910000  0.15890000  0.16720000  1
  H  H115  1  0.46910000  0.65890000  0.33280000  1
  H  H116  1  0.47810000  0.46660000  0.96580000  1
  H  H117  1  0.47810000  0.96660000  0.53420000  1
  H  H118  1  0.49740000  0.29040000  0.72620000  1
  H  H119  1  0.49740000  0.79040000  0.77380000  1
  H  H120  1  0.50260000  0.20960000  0.22620000  1
  H  H121  1  0.50260000  0.70960000  0.27380000  1
  H  H122  1  0.52190000  0.03340000  0.46580000  1
  H  H123  1  0.52190000  0.53340000  0.03420000  1
  H  H124  1  0.53090000  0.34110000  0.66720000  1
  H  H125  1  0.53090000  0.84110000  0.83280000  1
  H  H126  1  0.53410000  0.21390000  0.83360000  1
  H  H127  1  0.53410000  0.71390000  0.66640000  1
  H  H128  1  0.53490000  0.08550000  0.67010000  1
  H  H129  1  0.53490000  0.58550000  0.82990000  1
  H  H130  1  0.53610000  0.07580000  0.38190000  1
  H  H131  1  0.53610000  0.57580000  0.11810000  1
  H  H132  1  0.54620000  0.02990000  0.05610000  1
  H  H133  1  0.54620000  0.52990000  0.44390000  1
  H  H134  1  0.55570000  0.41200000  0.64270000  1
  H  H135  1  0.55570000  0.91200000  0.85730000  1
  H  H136  1  0.55600000  0.20320000  0.27510000  1
  H  H137  1  0.55600000  0.70320000  0.22490000  1
  H  H138  1  0.55860000  0.34990000  0.22940000  1
  H  H139  1  0.55860000  0.84990000  0.27060000  1
  H  H140  1  0.56090000  0.01380000  0.64500000  1
  H  H141  1  0.56090000  0.51380000  0.85500000  1
  H  H142  1  0.58490000  0.15300000  0.59260000  1
  H  H143  1  0.58490000  0.65300000  0.90740000  1
  H  H144  1  0.60050000  0.27160000  0.59050000  1
  H  H145  1  0.60050000  0.77160000  0.90950000  1
  H  H146  1  0.61130000  0.08090000  0.56950000  1
  H  H147  1  0.61130000  0.58090000  0.93050000  1
  H  H148  1  0.62380000  0.17370000  0.86950000  1
  H  H149  1  0.62380000  0.67370000  0.63050000  1
  H  H150  1  0.62400000  0.35730000  0.41050000  1
  H  H151  1  0.62400000  0.85730000  0.08950000  1
  H  H152  1  0.62420000  0.04860000  0.01220000  1
  H  H153  1  0.62420000  0.40260000  0.47760000  1
  H  H154  1  0.62420000  0.54860000  0.48780000  1
  H  H155  1  0.62420000  0.90260000  0.02240000  1
  H  H156  1  0.62450000  0.33900000  0.27690000  1
  H  H157  1  0.62450000  0.83900000  0.22310000  1
  H  H158  1  0.63230000  0.34590000  0.56900000  1
  H  H159  1  0.63230000  0.84590000  0.93100000  1
  H  H160  1  0.67910000  0.05970000  0.47500000  1
  H  H161  1  0.67910000  0.55970000  0.02500000  1
  H  H162  1  0.69040000  0.10170000  0.38820000  1
  H  H163  1  0.69040000  0.60170000  0.11180000  1
  H  H164  1  0.69630000  0.41990000  0.52310000  1
  H  H165  1  0.69630000  0.91990000  0.97690000  1
  H  H166  1  0.70450000  0.32210000  0.37180000  1
  H  H167  1  0.70450000  0.82210000  0.12820000  1
  H  H168  1  0.79550000  0.32210000  0.87180000  1
  H  H169  1  0.79550000  0.82210000  0.62820000  1
  H  H170  1  0.80370000  0.41990000  0.02310000  1
  H  H171  1  0.80370000  0.91990000  0.47690000  1
  H  H172  1  0.80960000  0.10170000  0.88820000  1
  H  H173  1  0.80960000  0.60170000  0.61180000  1
  H  H174  1  0.82090000  0.05970000  0.97500000  1
  H  H175  1  0.82090000  0.55970000  0.52500000  1
  H  H176  1  0.86770000  0.34590000  0.06900000  1
  H  H177  1  0.86770000  0.84590000  0.43100000  1
  H  H178  1  0.87550000  0.33900000  0.77690000  1
  H  H179  1  0.87550000  0.83900000  0.72310000  1
  H  H180  1  0.87580000  0.04860000  0.51220000  1
  H  H181  1  0.87580000  0.40260000  0.97760000  1
  H  H182  1  0.87580000  0.54860000  0.98780000  1
  H  H183  1  0.87580000  0.90260000  0.52240000  1
  H  H184  1  0.87600000  0.35730000  0.91050000  1
  H  H185  1  0.87600000  0.85730000  0.58950000  1
  H  H186  1  0.87620000  0.17370000  0.36950000  1
  H  H187  1  0.87620000  0.67370000  0.13050000  1
  H  H188  1  0.88870000  0.08090000  0.06950000  1
  H  H189  1  0.88870000  0.58090000  0.43050000  1
  H  H190  1  0.89950000  0.27160000  0.09050000  1
  H  H191  1  0.89950000  0.77160000  0.40950000  1
  H  H192  1  0.91510000  0.15300000  0.09260000  1
  H  H193  1  0.91510000  0.65300000  0.40740000  1
  H  H194  1  0.93910000  0.01380000  0.14500000  1
  H  H195  1  0.93910000  0.51380000  0.35500000  1
  H  H196  1  0.94140000  0.34990000  0.72940000  1
  H  H197  1  0.94140000  0.84990000  0.77060000  1
  H  H198  1  0.94400000  0.20320000  0.77510000  1
  H  H199  1  0.94400000  0.70320000  0.72490000  1
  H  H200  1  0.94430000  0.41200000  0.14270000  1
  H  H201  1  0.94430000  0.91200000  0.35730000  1
  H  H202  1  0.95380000  0.02990000  0.55610000  1
  H  H203  1  0.95380000  0.52990000  0.94390000  1
  H  H204  1  0.96390000  0.07580000  0.88190000  1
  H  H205  1  0.96390000  0.57580000  0.61810000  1
  H  H206  1  0.96510000  0.08550000  0.17010000  1
  H  H207  1  0.96510000  0.58550000  0.32990000  1
  H  H208  1  0.96590000  0.21390000  0.33360000  1
  H  H209  1  0.96590000  0.71390000  0.16640000  1
  H  H210  1  0.96910000  0.34110000  0.16720000  1
  H  H211  1  0.96910000  0.84110000  0.33280000  1
  H  H212  1  0.97810000  0.03340000  0.96580000  1
  H  H213  1  0.97810000  0.53340000  0.53420000  1
  H  H214  1  0.99740000  0.20960000  0.72620000  1
  H  H215  1  0.99740000  0.70960000  0.77380000  1
  C  C216  1  0.00200000  0.30230000  0.84940000  1
  C  C217  1  0.00200000  0.80230000  0.65060000  1
  C  C218  1  0.00640000  0.28410000  0.69030000  1
  C  C219  1  0.00640000  0.78410000  0.80970000  1
  C  C220  1  0.00970000  0.42400000  0.99070000  1
  C  C221  1  0.00970000  0.92400000  0.50930000  1
  C  C222  1  0.01000000  0.34700000  0.89380000  1
  C  C223  1  0.01000000  0.84700000  0.60620000  1
  C  C224  1  0.01180000  0.45530000  0.04030000  1
  C  C225  1  0.01180000  0.95530000  0.45970000  1
  C  C226  1  0.02630000  0.26310000  0.23630000  1
  C  C227  1  0.02630000  0.76310000  0.26370000  1
  C  C228  1  0.02680000  0.21930000  0.22170000  1
  C  C229  1  0.02680000  0.71930000  0.27830000  1
  C  C230  1  0.04520000  0.32630000  0.64930000  1
  C  C231  1  0.04520000  0.82630000  0.85070000  1
  C  C232  1  0.04740000  0.24650000  0.64780000  1
  C  C233  1  0.04740000  0.74650000  0.85220000  1
  C  C234  1  0.05030000  0.41450000  0.64940000  1
  C  C235  1  0.05030000  0.91450000  0.85060000  1
  C  C236  1  0.05080000  0.15890000  0.64680000  1
  C  C237  1  0.05080000  0.65890000  0.85320000  1
  C  C238  1  0.05620000  0.32550000  0.87090000  1
  C  C239  1  0.05620000  0.82550000  0.62910000  1
  C  C240  1  0.05700000  0.45230000  0.44990000  1
  C  C241  1  0.05700000  0.95230000  0.05010000  1
  C  C242  1  0.05760000  0.37270000  0.63400000  1
  C  C243  1  0.05760000  0.87270000  0.86600000  1
  C  C244  1  0.05810000  0.44460000  0.01420000  1
  C  C245  1  0.05810000  0.94460000  0.48580000  1
  C  C246  1  0.05980000  0.26690000  0.26520000  1
  C  C247  1  0.05980000  0.76690000  0.23480000  1
  C  C248  1  0.06060000  0.40930000  0.96310000  1
  C  C249  1  0.06060000  0.90930000  0.53690000  1
  C  C250  1  0.06080000  0.18100000  0.23790000  1
  C  C251  1  0.06080000  0.68100000  0.26210000  1
  C  C252  1  0.06210000  0.37190000  0.91850000  1
  C  C253  1  0.06210000  0.87190000  0.58150000  1
  C  C254  1  0.06360000  0.20110000  0.63180000  1
  C  C255  1  0.06360000  0.70110000  0.86820000  1
  C  C256  1  0.06560000  0.42770000  0.40100000  1
  C  C257  1  0.06560000  0.92770000  0.09900000  1
  C  C258  1  0.06590000  0.45720000  0.63420000  1
  C  C259  1  0.06590000  0.95720000  0.86580000  1
  C  C260  1  0.06680000  0.11690000  0.63220000  1
  C  C261  1  0.06680000  0.61690000  0.86780000  1
  C  C262  1  0.07980000  0.37540000  0.60410000  1
  C  C263  1  0.07980000  0.87540000  0.89590000  1
  C  C264  1  0.08800000  0.08450000  0.49380000  1
  C  C265  1  0.08800000  0.58450000  0.00620000  1
  C  C266  1  0.08940000  0.15610000  0.39420000  1
  C  C267  1  0.08940000  0.65610000  0.10580000  1
  C  C268  1  0.09280000  0.20000000  0.60180000  1
  C  C269  1  0.09280000  0.70000000  0.89820000  1
  C  C270  1  0.09500000  0.41840000  0.59030000  1
  C  C271  1  0.09500000  0.91840000  0.90970000  1
  C  C272  1  0.09810000  0.18740000  0.26650000  1
  C  C273  1  0.09810000  0.68740000  0.23350000  1
  C  C274  1  0.11010000  0.15540000  0.58920000  1
  C  C275  1  0.11010000  0.65540000  0.91080000  1
  C  C276  1  0.13010000  0.07380000  0.52080000  1
  C  C277  1  0.13010000  0.57380000  0.97920000  1
  C  C278  1  0.13670000  0.17780000  0.37160000  1
  C  C279  1  0.13670000  0.67780000  0.12840000  1
  C  C280  1  0.15130000  0.43720000  0.45560000  1
  C  C281  1  0.15130000  0.93720000  0.04440000  1
  C  C282  1  0.15750000  0.41240000  0.40460000  1
  C  C283  1  0.15750000  0.91240000  0.09540000  1
  C  C284  1  0.19560000  0.40440000  0.93660000  1
  C  C285  1  0.19560000  0.90440000  0.56340000  1
  C  C286  1  0.20230000  0.41730000  0.43170000  1
  C  C287  1  0.20230000  0.91730000  0.06830000  1
  C  C288  1  0.29770000  0.41730000  0.93170000  1
  C  C289  1  0.29770000  0.91730000  0.56830000  1
  C  C290  1  0.30440000  0.40440000  0.43660000  1
  C  C291  1  0.30440000  0.90440000  0.06340000  1
  C  C292  1  0.34250000  0.41240000  0.90460000  1
  C  C293  1  0.34250000  0.91240000  0.59540000  1
  C  C294  1  0.34870000  0.43720000  0.95560000  1
  C  C295  1  0.34870000  0.93720000  0.54440000  1
  C  C296  1  0.36330000  0.17780000  0.87160000  1
  C  C297  1  0.36330000  0.67780000  0.62840000  1
  C  C298  1  0.36990000  0.07380000  0.02080000  1
  C  C299  1  0.36990000  0.57380000  0.47920000  1
  C  C300  1  0.38990000  0.15540000  0.08920000  1
  C  C301  1  0.38990000  0.65540000  0.41080000  1
  C  C302  1  0.40190000  0.18740000  0.76650000  1
  C  C303  1  0.40190000  0.68740000  0.73350000  1
  C  C304  1  0.40500000  0.41840000  0.09030000  1
  C  C305  1  0.40500000  0.91840000  0.40970000  1
  C  C306  1  0.40720000  0.20000000  0.10180000  1
  C  C307  1  0.40720000  0.70000000  0.39820000  1
  C  C308  1  0.41060000  0.15610000  0.89420000  1
  C  C309  1  0.41060000  0.65610000  0.60580000  1
  C  C310  1  0.41200000  0.08450000  0.99380000  1
  C  C311  1  0.41200000  0.58450000  0.50620000  1
  C  C312  1  0.42020000  0.37540000  0.10410000  1
  C  C313  1  0.42020000  0.87540000  0.39590000  1
  C  C314  1  0.43320000  0.11690000  0.13220000  1
  C  C315  1  0.43320000  0.61690000  0.36780000  1
  C  C316  1  0.43410000  0.45720000  0.13420000  1
  C  C317  1  0.43410000  0.95720000  0.36580000  1
  C  C318  1  0.43440000  0.42770000  0.90100000  1
  C  C319  1  0.43440000  0.92770000  0.59900000  1
  C  C320  1  0.43640000  0.20110000  0.13180000  1
  C  C321  1  0.43640000  0.70110000  0.36820000  1
  C  C322  1  0.43790000  0.37190000  0.41850000  1
  C  C323  1  0.43790000  0.87190000  0.08150000  1
  C  C324  1  0.43920000  0.18100000  0.73790000  1
  C  C325  1  0.43920000  0.68100000  0.76210000  1
  C  C326  1  0.43940000  0.40930000  0.46310000  1
  C  C327  1  0.43940000  0.90930000  0.03690000  1
  C  C328  1  0.44020000  0.26690000  0.76520000  1
  C  C329  1  0.44020000  0.76690000  0.73480000  1
  C  C330  1  0.44190000  0.44460000  0.51420000  1
  C  C331  1  0.44190000  0.94460000  0.98580000  1
  C  C332  1  0.44240000  0.37270000  0.13400000  1
  C  C333  1  0.44240000  0.87270000  0.36600000  1
  C  C334  1  0.44300000  0.45230000  0.94990000  1
  C  C335  1  0.44300000  0.95230000  0.55010000  1
  C  C336  1  0.44380000  0.32550000  0.37090000  1
  C  C337  1  0.44380000  0.82550000  0.12910000  1
  C  C338  1  0.44920000  0.15890000  0.14680000  1
  C  C339  1  0.44920000  0.65890000  0.35320000  1
  C  C340  1  0.44970000  0.41450000  0.14940000  1
  C  C341  1  0.44970000  0.91450000  0.35060000  1
  C  C342  1  0.45260000  0.24650000  0.14780000  1
  C  C343  1  0.45260000  0.74650000  0.35220000  1
  C  C344  1  0.45480000  0.32630000  0.14930000  1
  C  C345  1  0.45480000  0.82630000  0.35070000  1
  C  C346  1  0.47320000  0.21930000  0.72170000  1
  C  C347  1  0.47320000  0.71930000  0.77830000  1
  C  C348  1  0.47370000  0.26310000  0.73630000  1
  C  C349  1  0.47370000  0.76310000  0.76370000  1
  C  C350  1  0.48820000  0.45530000  0.54030000  1
  C  C351  1  0.48820000  0.95530000  0.95970000  1
  C  C352  1  0.49000000  0.34700000  0.39380000  1
  C  C353  1  0.49000000  0.84700000  0.10620000  1
  C  C354  1  0.49030000  0.42400000  0.49070000  1
  C  C355  1  0.49030000  0.92400000  0.00930000  1
  C  C356  1  0.49360000  0.28410000  0.19030000  1
  C  C357  1  0.49360000  0.78410000  0.30970000  1
  C  C358  1  0.49800000  0.30230000  0.34940000  1
  C  C359  1  0.49800000  0.80230000  0.15060000  1
  C  C360  1  0.50200000  0.19770000  0.84940000  1
  C  C361  1  0.50200000  0.69770000  0.65060000  1
  C  C362  1  0.50640000  0.21590000  0.69030000  1
  C  C363  1  0.50640000  0.71590000  0.80970000  1
  C  C364  1  0.50970000  0.07600000  0.99070000  1
  C  C365  1  0.50970000  0.57600000  0.50930000  1
  C  C366  1  0.51000000  0.15300000  0.89380000  1
  C  C367  1  0.51000000  0.65300000  0.60620000  1
  C  C368  1  0.51180000  0.04470000  0.04030000  1
  C  C369  1  0.51180000  0.54470000  0.45970000  1
  C  C370  1  0.52630000  0.23690000  0.23630000  1
  C  C371  1  0.52630000  0.73690000  0.26370000  1
  C  C372  1  0.52680000  0.28070000  0.22170000  1
  C  C373  1  0.52680000  0.78070000  0.27830000  1
  C  C374  1  0.54520000  0.17370000  0.64930000  1
  C  C375  1  0.54520000  0.67370000  0.85070000  1
  C  C376  1  0.54740000  0.25350000  0.64780000  1
  C  C377  1  0.54740000  0.75350000  0.85220000  1
  C  C378  1  0.55030000  0.08550000  0.64940000  1
  C  C379  1  0.55030000  0.58550000  0.85060000  1
  C  C380  1  0.55080000  0.34110000  0.64680000  1
  C  C381  1  0.55080000  0.84110000  0.85320000  1
  C  C382  1  0.55620000  0.17450000  0.87090000  1
  C  C383  1  0.55620000  0.67450000  0.62910000  1
  C  C384  1  0.55700000  0.04770000  0.44990000  1
  C  C385  1  0.55700000  0.54770000  0.05010000  1
  C  C386  1  0.55760000  0.12730000  0.63400000  1
  C  C387  1  0.55760000  0.62730000  0.86600000  1
  C  C388  1  0.55810000  0.05540000  0.01420000  1
  C  C389  1  0.55810000  0.55540000  0.48580000  1
  C  C390  1  0.55980000  0.23310000  0.26520000  1
  C  C391  1  0.55980000  0.73310000  0.23480000  1
  C  C392  1  0.56060000  0.09070000  0.96310000  1
  C  C393  1  0.56060000  0.59070000  0.53690000  1
  C  C394  1  0.56080000  0.31900000  0.23790000  1
  C  C395  1  0.56080000  0.81900000  0.26210000  1
  C  C396  1  0.56210000  0.12810000  0.91850000  1
  C  C397  1  0.56210000  0.62810000  0.58150000  1
  C  C398  1  0.56360000  0.29890000  0.63180000  1
  C  C399  1  0.56360000  0.79890000  0.86820000  1
  C  C400  1  0.56560000  0.07230000  0.40100000  1
  C  C401  1  0.56560000  0.57230000  0.09900000  1
  C  C402  1  0.56590000  0.04280000  0.63420000  1
  C  C403  1  0.56590000  0.54280000  0.86580000  1
  C  C404  1  0.56680000  0.38310000  0.63220000  1
  C  C405  1  0.56680000  0.88310000  0.86780000  1
  C  C406  1  0.57980000  0.12460000  0.60410000  1
  C  C407  1  0.57980000  0.62460000  0.89590000  1
  C  C408  1  0.58800000  0.41550000  0.49380000  1
  C  C409  1  0.58800000  0.91550000  0.00620000  1
  C  C410  1  0.58940000  0.34390000  0.39420000  1
  C  C411  1  0.58940000  0.84390000  0.10580000  1
  C  C412  1  0.59280000  0.30000000  0.60180000  1
  C  C413  1  0.59280000  0.80000000  0.89820000  1
  C  C414  1  0.59500000  0.08160000  0.59030000  1
  C  C415  1  0.59500000  0.58160000  0.90970000  1
  C  C416  1  0.59810000  0.31260000  0.26650000  1
  C  C417  1  0.59810000  0.81260000  0.23350000  1
  C  C418  1  0.61010000  0.34460000  0.58920000  1
  C  C419  1  0.61010000  0.84460000  0.91080000  1
  C  C420  1  0.63010000  0.42620000  0.52080000  1
  C  C421  1  0.63010000  0.92620000  0.97920000  1
  C  C422  1  0.63670000  0.32220000  0.37160000  1
  C  C423  1  0.63670000  0.82220000  0.12840000  1
  C  C424  1  0.65130000  0.06280000  0.45560000  1
  C  C425  1  0.65130000  0.56280000  0.04440000  1
  C  C426  1  0.65750000  0.08760000  0.40460000  1
  C  C427  1  0.65750000  0.58760000  0.09540000  1
  C  C428  1  0.69560000  0.09560000  0.93660000  1
  C  C429  1  0.69560000  0.59560000  0.56340000  1
  C  C430  1  0.70230000  0.08270000  0.43170000  1
  C  C431  1  0.70230000  0.58270000  0.06830000  1
  C  C432  1  0.79770000  0.08270000  0.93170000  1
  C  C433  1  0.79770000  0.58270000  0.56830000  1
  C  C434  1  0.80440000  0.09560000  0.43660000  1
  C  C435  1  0.80440000  0.59560000  0.06340000  1
  C  C436  1  0.84250000  0.08760000  0.90460000  1
  C  C437  1  0.84250000  0.58760000  0.59540000  1
  C  C438  1  0.84870000  0.06280000  0.95560000  1
  C  C439  1  0.84870000  0.56280000  0.54440000  1
  C  C440  1  0.86330000  0.32220000  0.87160000  1
  C  C441  1  0.86330000  0.82220000  0.62840000  1
  C  C442  1  0.86990000  0.42620000  0.02080000  1
  C  C443  1  0.86990000  0.92620000  0.47920000  1
  C  C444  1  0.88990000  0.34460000  0.08920000  1
  C  C445  1  0.88990000  0.84460000  0.41080000  1
  C  C446  1  0.90190000  0.31260000  0.76650000  1
  C  C447  1  0.90190000  0.81260000  0.73350000  1
  C  C448  1  0.90500000  0.08160000  0.09030000  1
  C  C449  1  0.90500000  0.58160000  0.40970000  1
  C  C450  1  0.90720000  0.30000000  0.10180000  1
  C  C451  1  0.90720000  0.80000000  0.39820000  1
  C  C452  1  0.91060000  0.34390000  0.89420000  1
  C  C453  1  0.91060000  0.84390000  0.60580000  1
  C  C454  1  0.91200000  0.41550000  0.99380000  1
  C  C455  1  0.91200000  0.91550000  0.50620000  1
  C  C456  1  0.92020000  0.12460000  0.10410000  1
  C  C457  1  0.92020000  0.62460000  0.39590000  1
  C  C458  1  0.93320000  0.38310000  0.13220000  1
  C  C459  1  0.93320000  0.88310000  0.36780000  1
  C  C460  1  0.93410000  0.04280000  0.13420000  1
  C  C461  1  0.93410000  0.54280000  0.36580000  1
  C  C462  1  0.93440000  0.07230000  0.90100000  1
  C  C463  1  0.93440000  0.57230000  0.59900000  1
  C  C464  1  0.93640000  0.29890000  0.13180000  1
  C  C465  1  0.93640000  0.79890000  0.36820000  1
  C  C466  1  0.93790000  0.12810000  0.41850000  1
  C  C467  1  0.93790000  0.62810000  0.08150000  1
  C  C468  1  0.93920000  0.31900000  0.73790000  1
  C  C469  1  0.93920000  0.81900000  0.76210000  1
  C  C470  1  0.93940000  0.09070000  0.46310000  1
  C  C471  1  0.93940000  0.59070000  0.03690000  1
  C  C472  1  0.94020000  0.23310000  0.76520000  1
  C  C473  1  0.94020000  0.73310000  0.73480000  1
  C  C474  1  0.94190000  0.05540000  0.51420000  1
  C  C475  1  0.94190000  0.55540000  0.98580000  1
  C  C476  1  0.94240000  0.12730000  0.13400000  1
  C  C477  1  0.94240000  0.62730000  0.36600000  1
  C  C478  1  0.94300000  0.04770000  0.94990000  1
  C  C479  1  0.94300000  0.54770000  0.55010000  1
  C  C480  1  0.94380000  0.17450000  0.37090000  1
  C  C481  1  0.94380000  0.67450000  0.12910000  1
  C  C482  1  0.94920000  0.34110000  0.14680000  1
  C  C483  1  0.94920000  0.84110000  0.35320000  1
  C  C484  1  0.94970000  0.08550000  0.14940000  1
  C  C485  1  0.94970000  0.58550000  0.35060000  1
  C  C486  1  0.95260000  0.25350000  0.14780000  1
  C  C487  1  0.95260000  0.75350000  0.35220000  1
  C  C488  1  0.95480000  0.17370000  0.14930000  1
  C  C489  1  0.95480000  0.67370000  0.35070000  1
  C  C490  1  0.97320000  0.28070000  0.72170000  1
  C  C491  1  0.97320000  0.78070000  0.77830000  1
  C  C492  1  0.97370000  0.23690000  0.73630000  1
  C  C493  1  0.97370000  0.73690000  0.76370000  1
  C  C494  1  0.98820000  0.04470000  0.54030000  1
  C  C495  1  0.98820000  0.54470000  0.95970000  1
  C  C496  1  0.99000000  0.15300000  0.39380000  1
  C  C497  1  0.99000000  0.65300000  0.10620000  1
  C  C498  1  0.99030000  0.07600000  0.49070000  1
  C  C499  1  0.99030000  0.57600000  0.00930000  1
  C  C500  1  0.99360000  0.21590000  0.19030000  1
  C  C501  1  0.99360000  0.71590000  0.30970000  1
  C  C502  1  0.99800000  0.19770000  0.34940000  1
  C  C503  1  0.99800000  0.69770000  0.15060000  1
  I  I504  1  0.05651000  0.48634000  0.88351000  1
  I  I505  1  0.05651000  0.98634000  0.61649000  1
  I  I506  1  0.15761000  0.32590000  0.33572000  1
  I  I507  1  0.15761000  0.82590000  0.16428000  1
  I  I508  1  0.16594000  0.20196000  0.81290000  1
  I  I509  1  0.16594000  0.70196000  0.68710000  1
  I  I510  1  0.17771000  0.05735000  0.08301000  1
  I  I511  1  0.17771000  0.55735000  0.41699000  1
  I  I512  1  0.19537000  0.00601000  0.96588000  1
  I  I513  1  0.19537000  0.50601000  0.53412000  1
  I  I514  1  0.19599000  0.07478000  0.87583000  1
  I  I515  1  0.19599000  0.57478000  0.62417000  1
  I  I516  1  0.30401000  0.07478000  0.37583000  1
  I  I517  1  0.30401000  0.57478000  0.12417000  1
  I  I518  1  0.30463000  0.00601000  0.46588000  1
  I  I519  1  0.30463000  0.50601000  0.03412000  1
  I  I520  1  0.32229000  0.05735000  0.58301000  1
  I  I521  1  0.32229000  0.55735000  0.91699000  1
  I  I522  1  0.33406000  0.20196000  0.31290000  1
  I  I523  1  0.33406000  0.70196000  0.18710000  1
  I  I524  1  0.34239000  0.32590000  0.83572000  1
  I  I525  1  0.34239000  0.82590000  0.66428000  1
  I  I526  1  0.44349000  0.48634000  0.38351000  1
  I  I527  1  0.44349000  0.98634000  0.11649000  1
  I  I528  1  0.55651000  0.01366000  0.88351000  1
  I  I529  1  0.55651000  0.51366000  0.61649000  1
  I  I530  1  0.65761000  0.17410000  0.33572000  1
  I  I531  1  0.65761000  0.67410000  0.16428000  1
  I  I532  1  0.66594000  0.29804000  0.81290000  1
  I  I533  1  0.66594000  0.79804000  0.68710000  1
  I  I534  1  0.67771000  0.44265000  0.08301000  1
  I  I535  1  0.67771000  0.94265000  0.41699000  1
  I  I536  1  0.69537000  0.49399000  0.96588000  1
  I  I537  1  0.69537000  0.99399000  0.53412000  1
  I  I538  1  0.69599000  0.42522000  0.87583000  1
  I  I539  1  0.69599000  0.92522000  0.62417000  1
  I  I540  1  0.80401000  0.42522000  0.37583000  1
  I  I541  1  0.80401000  0.92522000  0.12417000  1
  I  I542  1  0.80463000  0.49399000  0.46588000  1
  I  I543  1  0.80463000  0.99399000  0.03412000  1
  I  I544  1  0.82229000  0.44265000  0.58301000  1
  I  I545  1  0.82229000  0.94265000  0.91699000  1
  I  I546  1  0.83406000  0.29804000  0.31290000  1
  I  I547  1  0.83406000  0.79804000  0.18710000  1
  I  I548  1  0.84239000  0.17410000  0.83572000  1
  I  I549  1  0.84239000  0.67410000  0.66428000  1
  I  I550  1  0.94349000  0.01366000  0.38351000  1
  I  I551  1  0.94349000  0.51366000  0.11649000  1
  N  N552  1  0.00970000  0.38670000  0.94220000  1
  N  N553  1  0.00970000  0.88670000  0.55780000  1
  N  N554  1  0.01580000  0.44760000  0.42360000  1
  N  N555  1  0.01580000  0.94760000  0.07640000  1
  N  N556  1  0.01670000  0.32730000  0.67830000  1
  N  N557  1  0.01670000  0.82730000  0.82170000  1
  N  N558  1  0.02130000  0.24330000  0.67636000  1
  N  N559  1  0.02130000  0.74330000  0.82364000  1
  N  N560  1  0.06120000  0.28730000  0.63300000  1
  N  N561  1  0.06120000  0.78730000  0.86700000  1
  N  N562  1  0.08260000  0.05480000  0.54440000  1
  N  N563  1  0.08260000  0.55480000  0.95560000  1
  N  N564  1  0.08760000  0.45880000  0.60510000  1
  N  N565  1  0.08760000  0.95880000  0.89490000  1
  N  N566  1  0.09220000  0.19850000  0.34970000  1
  N  N567  1  0.09220000  0.69850000  0.15030000  1
  N  N568  1  0.09720000  0.11450000  0.60372000  1
  N  N569  1  0.09720000  0.61450000  0.89628000  1
  N  N570  1  0.09750000  0.23010000  0.27976000  1
  N  N571  1  0.09750000  0.73010000  0.22024000  1
  N  N572  1  0.15350000  0.42070000  0.96100000  1
  N  N573  1  0.15350000  0.92070000  0.53900000  1
  N  N574  1  0.15560000  0.37860000  0.91450000  1
  N  N575  1  0.15560000  0.87860000  0.58550000  1
  N  N576  1  0.34440000  0.37860000  0.41450000  1
  N  N577  1  0.34440000  0.87860000  0.08550000  1
  N  N578  1  0.34650000  0.42070000  0.46100000  1
  N  N579  1  0.34650000  0.92070000  0.03900000  1
  N  N580  1  0.40250000  0.23010000  0.77976000  1
  N  N581  1  0.40250000  0.73010000  0.72024000  1
  N  N582  1  0.40280000  0.11450000  0.10372000  1
  N  N583  1  0.40280000  0.61450000  0.39628000  1
  N  N584  1  0.40780000  0.19850000  0.84970000  1
  N  N585  1  0.40780000  0.69850000  0.65030000  1
  N  N586  1  0.41240000  0.45880000  0.10510000  1
  N  N587  1  0.41240000  0.95880000  0.39490000  1
  N  N588  1  0.41740000  0.05480000  0.04440000  1
  N  N589  1  0.41740000  0.55480000  0.45560000  1
  N  N590  1  0.43880000  0.28730000  0.13300000  1
  N  N591  1  0.43880000  0.78730000  0.36700000  1
  N  N592  1  0.47870000  0.24330000  0.17636000  1
  N  N593  1  0.47870000  0.74330000  0.32364000  1
  N  N594  1  0.48330000  0.32730000  0.17830000  1
  N  N595  1  0.48330000  0.82730000  0.32170000  1
  N  N596  1  0.48420000  0.44760000  0.92360000  1
  N  N597  1  0.48420000  0.94760000  0.57640000  1
  N  N598  1  0.49030000  0.38670000  0.44220000  1
  N  N599  1  0.49030000  0.88670000  0.05780000  1
  N  N600  1  0.50970000  0.11330000  0.94220000  1
  N  N601  1  0.50970000  0.61330000  0.55780000  1
  N  N602  1  0.51580000  0.05240000  0.42360000  1
  N  N603  1  0.51580000  0.55240000  0.07640000  1
  N  N604  1  0.51670000  0.17270000  0.67830000  1
  N  N605  1  0.51670000  0.67270000  0.82170000  1
  N  N606  1  0.52130000  0.25670000  0.67636000  1
  N  N607  1  0.52130000  0.75670000  0.82364000  1
  N  N608  1  0.56120000  0.21270000  0.63300000  1
  N  N609  1  0.56120000  0.71270000  0.86700000  1
  N  N610  1  0.58260000  0.44520000  0.54440000  1
  N  N611  1  0.58260000  0.94520000  0.95560000  1
  N  N612  1  0.58760000  0.04120000  0.60510000  1
  N  N613  1  0.58760000  0.54120000  0.89490000  1
  N  N614  1  0.59220000  0.30150000  0.34970000  1
  N  N615  1  0.59220000  0.80150000  0.15030000  1
  N  N616  1  0.59720000  0.38550000  0.60372000  1
  N  N617  1  0.59720000  0.88550000  0.89628000  1
  N  N618  1  0.59750000  0.26990000  0.27976000  1
  N  N619  1  0.59750000  0.76990000  0.22024000  1
  N  N620  1  0.65350000  0.07930000  0.96100000  1
  N  N621  1  0.65350000  0.57930000  0.53900000  1
  N  N622  1  0.65560000  0.12140000  0.91450000  1
  N  N623  1  0.65560000  0.62140000  0.58550000  1
  N  N624  1  0.84440000  0.12140000  0.41450000  1
  N  N625  1  0.84440000  0.62140000  0.08550000  1
  N  N626  1  0.84650000  0.07930000  0.46100000  1
  N  N627  1  0.84650000  0.57930000  0.03900000  1
  N  N628  1  0.90250000  0.26990000  0.77976000  1
  N  N629  1  0.90250000  0.76990000  0.72024000  1
  N  N630  1  0.90280000  0.38550000  0.10372000  1
  N  N631  1  0.90280000  0.88550000  0.39628000  1
  N  N632  1  0.90780000  0.30150000  0.84970000  1
  N  N633  1  0.90780000  0.80150000  0.65030000  1
  N  N634  1  0.91240000  0.04120000  0.10510000  1
  N  N635  1  0.91240000  0.54120000  0.39490000  1
  N  N636  1  0.91740000  0.44520000  0.04440000  1
  N  N637  1  0.91740000  0.94520000  0.45560000  1
  N  N638  1  0.93880000  0.21270000  0.13300000  1
  N  N639  1  0.93880000  0.71270000  0.36700000  1
  N  N640  1  0.97870000  0.25670000  0.17636000  1
  N  N641  1  0.97870000  0.75670000  0.32364000  1
  N  N642  1  0.98330000  0.17270000  0.17830000  1
  N  N643  1  0.98330000  0.67270000  0.32170000  1
  N  N644  1  0.98420000  0.05240000  0.92360000  1
  N  N645  1  0.98420000  0.55240000  0.57640000  1
  N  N646  1  0.99030000  0.11330000  0.44220000  1
  N  N647  1  0.99030000  0.61330000  0.05780000  1
