# generated using pymatgen
data_MgH2(CO2)2
_symmetry_space_group_name_H-M   'P 1'
_cell_length_a   9.85680000
_cell_length_b   11.30700000
_cell_length_c   14.72900000
_cell_angle_alpha   91.37100000
_cell_angle_beta   90.00000000
_cell_angle_gamma   90.00000000
_symmetry_Int_Tables_number   1
_chemical_formula_structural   MgH2(CO2)2
_chemical_formula_sum   'Mg12 H24 C24 O48'
_cell_volume   1641.08945446
_cell_formula_units_Z   12
loop_
 _symmetry_equiv_pos_site_id
 _symmetry_equiv_pos_as_xyz
  1  'x, y, z'
loop_
 _atom_site_type_symbol
 _atom_site_label
 _atom_site_symmetry_multiplicity
 _atom_site_fract_x
 _atom_site_fract_y
 _atom_site_fract_z
 _atom_site_occupancy
  Mg  Mg0  1  0.00000000  0.00000000  0.00000000  1
  Mg  Mg1  1  0.00000000  0.50000000  0.00000000  1
  Mg  Mg2  1  0.07762000  0.75643000  0.13538000  1
  Mg  Mg3  1  0.11430000  0.26038000  0.69267000  1
  Mg  Mg4  1  0.38570000  0.76038000  0.19267000  1
  Mg  Mg5  1  0.42238000  0.25643000  0.63538000  1
  Mg  Mg6  1  0.50000000  0.00000000  0.50000000  1
  Mg  Mg7  1  0.50000000  0.50000000  0.50000000  1
  Mg  Mg8  1  0.57762000  0.74357000  0.36462000  1
  Mg  Mg9  1  0.61430000  0.23962000  0.80733000  1
  Mg  Mg10  1  0.88570000  0.73962000  0.30733000  1
  Mg  Mg11  1  0.92238000  0.24357000  0.86462000  1
  H  H12  1  0.05240000  0.52270000  0.74240000  1
  H  H13  1  0.12110000  0.05540000  0.55130000  1
  H  H14  1  0.15190000  0.30320000  0.07010000  1
  H  H15  1  0.19850000  0.02070000  0.77520000  1
  H  H16  1  0.20910000  0.50120000  0.52630000  1
  H  H17  1  0.23680000  0.85060000  0.36960000  1
  H  H18  1  0.26320000  0.35060000  0.86960000  1
  H  H19  1  0.29090000  0.00120000  0.02630000  1
  H  H20  1  0.30150000  0.52070000  0.27520000  1
  H  H21  1  0.34810000  0.80320000  0.57010000  1
  H  H22  1  0.37890000  0.55540000  0.05130000  1
  H  H23  1  0.44760000  0.02270000  0.24240000  1
  H  H24  1  0.55240000  0.97730000  0.75760000  1
  H  H25  1  0.62110000  0.44460000  0.94870000  1
  H  H26  1  0.65190000  0.19680000  0.42990000  1
  H  H27  1  0.69850000  0.47930000  0.72480000  1
  H  H28  1  0.70910000  0.99880000  0.97370000  1
  H  H29  1  0.73680000  0.64940000  0.13040000  1
  H  H30  1  0.76320000  0.14940000  0.63040000  1
  H  H31  1  0.79090000  0.49880000  0.47370000  1
  H  H32  1  0.80150000  0.97930000  0.22480000  1
  H  H33  1  0.84810000  0.69680000  0.92990000  1
  H  H34  1  0.87890000  0.94460000  0.44870000  1
  H  H35  1  0.94760000  0.47730000  0.25760000  1
  C  C36  1  0.02673000  0.48113000  0.79328000  1
  C  C37  1  0.09725000  0.25895000  0.03060000  1
  C  C38  1  0.13634000  0.04879000  0.81804000  1
  C  C39  1  0.16778000  0.82302000  0.33154000  1
  C  C40  1  0.21269000  0.07405000  0.55670000  1
  C  C41  1  0.22700000  0.43735000  0.56311000  1
  C  C42  1  0.27300000  0.93735000  0.06311000  1
  C  C43  1  0.28731000  0.57405000  0.05670000  1
  C  C44  1  0.33222000  0.32302000  0.83154000  1
  C  C45  1  0.36366000  0.54879000  0.31804000  1
  C  C46  1  0.40275000  0.75895000  0.53060000  1
  C  C47  1  0.47327000  0.98113000  0.29328000  1
  C  C48  1  0.52673000  0.01887000  0.70672000  1
  C  C49  1  0.59725000  0.24105000  0.46940000  1
  C  C50  1  0.63634000  0.45121000  0.68196000  1
  C  C51  1  0.66778000  0.67698000  0.16846000  1
  C  C52  1  0.71269000  0.42595000  0.94330000  1
  C  C53  1  0.72700000  0.06265000  0.93689000  1
  C  C54  1  0.77300000  0.56265000  0.43689000  1
  C  C55  1  0.78731000  0.92595000  0.44330000  1
  C  C56  1  0.83222000  0.17698000  0.66846000  1
  C  C57  1  0.86366000  0.95121000  0.18196000  1
  C  C58  1  0.90275000  0.74105000  0.96940000  1
  C  C59  1  0.97327000  0.51887000  0.20672000  1
  O  O60  1  0.01075000  0.36985000  0.78298000  1
  O  O61  1  0.01116000  0.53874000  0.86478000  1
  O  O62  1  0.02432000  0.31631000  0.97471000  1
  O  O63  1  0.05519000  0.80662000  0.36649000  1
  O  O64  1  0.08228000  0.14956000  0.80380000  1
  O  O65  1  0.10166000  0.15067000  0.03682000  1
  O  O66  1  0.11362000  0.98563000  0.88337000  1
  O  O67  1  0.12974000  0.39508000  0.60465000  1
  O  O68  1  0.15011000  0.90111000  0.06621000  1
  O  O69  1  0.19734000  0.80544000  0.24792000  1
  O  O70  1  0.20696000  0.51602000  0.00924000  1
  O  O71  1  0.24490000  0.15782000  0.61275000  1
  O  O72  1  0.25510000  0.65782000  0.11275000  1
  O  O73  1  0.29304000  0.01602000  0.50924000  1
  O  O74  1  0.30266000  0.30544000  0.74792000  1
  O  O75  1  0.34989000  0.40111000  0.56621000  1
  O  O76  1  0.37026000  0.89508000  0.10465000  1
  O  O77  1  0.38638000  0.48563000  0.38337000  1
  O  O78  1  0.39834000  0.65067000  0.53682000  1
  O  O79  1  0.41772000  0.64956000  0.30380000  1
  O  O80  1  0.44481000  0.30662000  0.86649000  1
  O  O81  1  0.47568000  0.81631000  0.47471000  1
  O  O82  1  0.48884000  0.03874000  0.36478000  1
  O  O83  1  0.48925000  0.86985000  0.28298000  1
  O  O84  1  0.51075000  0.13015000  0.71702000  1
  O  O85  1  0.51116000  0.96126000  0.63522000  1
  O  O86  1  0.52432000  0.18369000  0.52529000  1
  O  O87  1  0.55519000  0.69338000  0.13351000  1
  O  O88  1  0.58228000  0.35044000  0.69620000  1
  O  O89  1  0.60166000  0.34933000  0.46318000  1
  O  O90  1  0.61362000  0.51437000  0.61663000  1
  O  O91  1  0.62974000  0.10492000  0.89535000  1
  O  O92  1  0.65011000  0.59889000  0.43379000  1
  O  O93  1  0.69734000  0.69456000  0.25208000  1
  O  O94  1  0.70696000  0.98398000  0.49076000  1
  O  O95  1  0.74490000  0.34218000  0.88725000  1
  O  O96  1  0.75510000  0.84218000  0.38725000  1
  O  O97  1  0.79304000  0.48398000  0.99076000  1
  O  O98  1  0.80266000  0.19456000  0.75208000  1
  O  O99  1  0.84989000  0.09889000  0.93379000  1
  O  O100  1  0.87026000  0.60492000  0.39535000  1
  O  O101  1  0.88638000  0.01437000  0.11663000  1
  O  O102  1  0.89834000  0.84933000  0.96318000  1
  O  O103  1  0.91772000  0.85044000  0.19620000  1
  O  O104  1  0.94481000  0.19338000  0.63351000  1
  O  O105  1  0.97568000  0.68369000  0.02529000  1
  O  O106  1  0.98884000  0.46126000  0.13522000  1
  O  O107  1  0.98925000  0.63015000  0.21702000  1
