# generated using pymatgen
data_EuH22C29(SO3)2
_symmetry_space_group_name_H-M   'P 1'
_cell_length_a   8.70970000
_cell_length_b   14.07380000
_cell_length_c   16.20650000
_cell_angle_alpha   114.08500000
_cell_angle_beta   91.02800000
_cell_angle_gamma   94.46300000
_symmetry_Int_Tables_number   1
_chemical_formula_structural   EuH22C29(SO3)2
_chemical_formula_sum   'Eu2 H44 C58 S4 O12'
_cell_volume   1805.42442858
_cell_formula_units_Z   2
loop_
 _symmetry_equiv_pos_site_id
 _symmetry_equiv_pos_as_xyz
  1  'x, y, z'
loop_
 _atom_site_type_symbol
 _atom_site_label
 _atom_site_symmetry_multiplicity
 _atom_site_fract_x
 _atom_site_fract_y
 _atom_site_fract_z
 _atom_site_occupancy
  Eu  Eu0  1  0.18541000  0.04422000  0.43851000  1
  Eu  Eu1  1  0.81459000  0.95578000  0.56149000  1
  H  H2  1  0.02230000  0.32970000  0.42100000  1
  H  H3  1  0.02690000  0.06700000  0.87760000  1
  H  H4  1  0.03180000  0.64890000  0.78660000  1
  H  H5  1  0.05810000  0.83090000  0.25370000  1
  H  H6  1  0.05850000  0.71290000  0.10390000  1
  H  H7  1  0.07890000  0.71350000  0.72790000  1
  H  H8  1  0.08510000  0.58940000  0.68570000  1
  H  H9  1  0.10220000  0.64350000  0.42870000  1
  H  H10  1  0.11750000  0.36320000  0.06670000  1
  H  H11  1  0.16530000  0.39180000  0.68440000  1
  H  H12  1  0.16660000  0.50990000  0.83440000  1
  H  H13  1  0.19980000  0.36500000  0.45450000  1
  H  H14  1  0.21150000  0.44490000  0.15670000  1
  H  H15  1  0.21590000  0.58350000  0.08290000  1
  H  H16  1  0.22660000  0.09430000  0.98640000  1
  H  H17  1  0.26530000  0.33000000  0.10500000  1
  H  H18  1  0.28060000  0.86980000  0.68620000  1
  H  H19  1  0.28080000  0.55790000  0.98540000  1
  H  H20  1  0.29510000  0.77760000  0.46130000  1
  H  H21  1  0.33580000  0.52990000  0.58120000  1
  H  H22  1  0.46780000  0.33730000  0.38780000  1
  H  H23  1  0.47080000  0.89070000  0.79630000  1
  H  H24  1  0.52920000  0.10930000  0.20370000  1
  H  H25  1  0.53220000  0.66270000  0.61220000  1
  H  H26  1  0.66420000  0.47010000  0.41880000  1
  H  H27  1  0.70490000  0.22240000  0.53870000  1
  H  H28  1  0.71920000  0.44210000  0.01460000  1
  H  H29  1  0.71940000  0.13020000  0.31380000  1
  H  H30  1  0.73470000  0.67000000  0.89500000  1
  H  H31  1  0.77340000  0.90570000  0.01360000  1
  H  H32  1  0.78410000  0.41650000  0.91710000  1
  H  H33  1  0.78850000  0.55510000  0.84330000  1
  H  H34  1  0.80020000  0.63500000  0.54550000  1
  H  H35  1  0.83340000  0.49010000  0.16560000  1
  H  H36  1  0.83470000  0.60820000  0.31560000  1
  H  H37  1  0.88250000  0.63680000  0.93330000  1
  H  H38  1  0.89780000  0.35650000  0.57130000  1
  H  H39  1  0.91490000  0.41060000  0.31430000  1
  H  H40  1  0.92110000  0.28650000  0.27210000  1
  H  H41  1  0.94150000  0.28710000  0.89610000  1
  H  H42  1  0.94190000  0.16910000  0.74630000  1
  H  H43  1  0.96820000  0.35110000  0.21340000  1
  H  H44  1  0.97310000  0.93300000  0.12240000  1
  H  H45  1  0.97770000  0.67030000  0.57900000  1
  C  C46  1  0.01070000  0.76180000  0.23560000  1
  C  C47  1  0.01120000  0.69180000  0.14680000  1
  C  C48  1  0.01710000  0.95660000  0.69980000  1
  C  C49  1  0.03000000  0.64700000  0.72600000  1
  C  C50  1  0.05800000  0.41130000  0.88130000  1
  C  C51  1  0.05840000  0.26770000  0.70100000  1
  C  C52  1  0.06260000  0.48880000  0.97930000  1
  C  C53  1  0.06930000  0.48850000  0.48430000  1
  C  C54  1  0.07820000  0.18930000  0.60800000  1
  C  C55  1  0.11000000  0.38120000  0.42590000  1
  C  C56  1  0.11880000  0.03330000  0.86040000  1
  C  C57  1  0.12170000  0.37000000  0.72790000  1
  C  C58  1  0.12180000  0.44030000  0.81710000  1
  C  C59  1  0.13760000  0.96860000  0.77100000  1
  C  C60  1  0.18910000  0.64760000  0.46670000  1
  C  C61  1  0.19700000  0.57280000  0.50240000  1
  C  C62  1  0.22020000  0.38770000  0.09730000  1
  C  C63  1  0.22360000  0.52690000  0.02210000  1
  C  C64  1  0.23780000  0.04820000  0.92520000  1
  C  C65  1  0.26890000  0.91560000  0.74740000  1
  C  C66  1  0.30440000  0.72700000  0.48540000  1
  C  C67  1  0.32740000  0.58010000  0.55660000  1
  C  C68  1  0.33820000  0.93260000  0.04910000  1
  C  C69  1  0.37310000  0.99720000  0.90230000  1
  C  C70  1  0.38320000  0.92930000  0.81320000  1
  C  C71  1  0.43480000  0.73410000  0.53950000  1
  C  C72  1  0.44020000  0.18060000  0.44020000  1
  C  C73  1  0.44440000  0.65910000  0.57510000  1
  C  C74  1  0.49540000  0.98330000  0.03060000  1
  C  C75  1  0.50460000  0.01670000  0.96940000  1
  C  C76  1  0.55560000  0.34090000  0.42490000  1
  C  C77  1  0.55980000  0.81940000  0.55980000  1
  C  C78  1  0.56520000  0.26590000  0.46050000  1
  C  C79  1  0.61680000  0.07070000  0.18680000  1
  C  C80  1  0.62690000  0.00280000  0.09770000  1
  C  C81  1  0.66180000  0.06740000  0.95090000  1
  C  C82  1  0.67260000  0.41990000  0.44340000  1
  C  C83  1  0.69560000  0.27300000  0.51460000  1
  C  C84  1  0.73110000  0.08440000  0.25260000  1
  C  C85  1  0.76220000  0.95180000  0.07480000  1
  C  C86  1  0.77640000  0.47310000  0.97790000  1
  C  C87  1  0.77980000  0.61230000  0.90270000  1
  C  C88  1  0.80300000  0.42720000  0.49760000  1
  C  C89  1  0.81090000  0.35240000  0.53330000  1
  C  C90  1  0.86240000  0.03140000  0.22900000  1
  C  C91  1  0.87820000  0.55970000  0.18290000  1
  C  C92  1  0.87830000  0.63000000  0.27210000  1
  C  C93  1  0.88120000  0.96670000  0.13960000  1
  C  C94  1  0.89000000  0.61880000  0.57410000  1
  C  C95  1  0.92180000  0.81070000  0.39200000  1
  C  C96  1  0.93070000  0.51150000  0.51570000  1
  C  C97  1  0.93740000  0.51120000  0.02070000  1
  C  C98  1  0.94160000  0.73230000  0.29900000  1
  C  C99  1  0.94200000  0.58870000  0.11870000  1
  C  C100  1  0.97000000  0.35300000  0.27400000  1
  C  C101  1  0.98290000  0.04340000  0.30020000  1
  C  C102  1  0.98880000  0.30820000  0.85320000  1
  C  C103  1  0.98930000  0.23820000  0.76440000  1
  S  S104  1  0.15500000  0.36920000  0.31480000  1
  S  S105  1  0.33460000  0.43110000  0.03400000  1
  S  S106  1  0.66540000  0.56890000  0.96600000  1
  S  S107  1  0.84500000  0.63080000  0.68520000  1
  O  O108  1  0.00620000  0.09760000  0.57770000  1
  O  O109  1  0.04580000  0.90650000  0.61650000  1
  O  O110  1  0.10650000  0.00170000  0.27870000  1
  O  O111  1  0.17160000  0.21360000  0.56150000  1
  O  O112  1  0.32170000  0.17640000  0.39450000  1
  O  O113  1  0.45660000  0.11180000  0.47190000  1
  O  O114  1  0.54340000  0.88820000  0.52810000  1
  O  O115  1  0.67830000  0.82360000  0.60550000  1
  O  O116  1  0.82840000  0.78640000  0.43850000  1
  O  O117  1  0.89350000  0.99830000  0.72130000  1
  O  O118  1  0.95420000  0.09350000  0.38350000  1
  O  O119  1  0.99380000  0.90240000  0.42230000  1
