# generated using pymatgen
data_Tb2Fe3H18C42(NO4)6
_symmetry_space_group_name_H-M   'P 1'
_cell_length_a   15.19900000
_cell_length_b   15.19900000
_cell_length_c   15.58900000
_cell_angle_alpha   90.00000000
_cell_angle_beta   90.00000000
_cell_angle_gamma   120.00000000
_symmetry_Int_Tables_number   1
_chemical_formula_structural   Tb2Fe3H18C42(NO4)6
_chemical_formula_sum   'Tb4 Fe6 H36 C84 N12 O48'
_cell_volume   3118.73819254
_cell_formula_units_Z   2
loop_
 _symmetry_equiv_pos_site_id
 _symmetry_equiv_pos_as_xyz
  1  'x, y, z'
loop_
 _atom_site_type_symbol
 _atom_site_label
 _atom_site_symmetry_multiplicity
 _atom_site_fract_x
 _atom_site_fract_y
 _atom_site_fract_z
 _atom_site_occupancy
  Tb  Tb0  1  0.66666667  0.33333333  0.75000000  1
  Tb  Tb1  1  0.66666667  0.33333333  0.25000000  1
  Tb  Tb2  1  0.33333333  0.66666667  0.75000000  1
  Tb  Tb3  1  0.33333333  0.66666667  0.25000000  1
  Fe  Fe4  1  1.00000000  0.50000000  0.00000000  1
  Fe  Fe5  1  1.00000000  0.50000000  0.50000000  1
  Fe  Fe6  1  0.50000000  0.50000000  1.00000000  1
  Fe  Fe7  1  0.50000000  0.50000000  0.50000000  1
  Fe  Fe8  1  0.50000000  0.00000000  0.00000000  1
  Fe  Fe9  1  0.50000000  0.00000000  0.50000000  1
  H  H10  1  0.94450000  0.23240000  0.65530000  1
  H  H11  1  0.94450000  0.23240000  0.34470000  1
  H  H12  1  0.94450000  0.71210000  0.84470000  1
  H  H13  1  0.94450000  0.71210000  0.15530000  1
  H  H14  1  0.90065000  0.09935000  0.75000000  1
  H  H15  1  0.90065000  0.09935000  0.25000000  1
  H  H16  1  0.90065000  0.80130000  0.75000000  1
  H  H17  1  0.90065000  0.80130000  0.25000000  1
  H  H18  1  0.80130000  0.90065000  0.75000000  1
  H  H19  1  0.80130000  0.90065000  0.25000000  1
  H  H20  1  0.76760000  0.05550000  0.84470000  1
  H  H21  1  0.76760000  0.05550000  0.15530000  1
  H  H22  1  0.76760000  0.71210000  0.65530000  1
  H  H23  1  0.76760000  0.71210000  0.34470000  1
  H  H24  1  0.71210000  0.76760000  0.84470000  1
  H  H25  1  0.71210000  0.76760000  0.15530000  1
  H  H26  1  0.71210000  0.94450000  0.65530000  1
  H  H27  1  0.71210000  0.94450000  0.34470000  1
  H  H28  1  0.28790000  0.05550000  0.65530000  1
  H  H29  1  0.28790000  0.05550000  0.34470000  1
  H  H30  1  0.28790000  0.23240000  0.84470000  1
  H  H31  1  0.28790000  0.23240000  0.15530000  1
  H  H32  1  0.23240000  0.28790000  0.65530000  1
  H  H33  1  0.23240000  0.28790000  0.34470000  1
  H  H34  1  0.23240000  0.94450000  0.84470000  1
  H  H35  1  0.23240000  0.94450000  0.15530000  1
  H  H36  1  0.19870000  0.09935000  0.75000000  1
  H  H37  1  0.19870000  0.09935000  0.25000000  1
  H  H38  1  0.09935000  0.19870000  0.75000000  1
  H  H39  1  0.09935000  0.19870000  0.25000000  1
  H  H40  1  0.09935000  0.90065000  0.75000000  1
  H  H41  1  0.09935000  0.90065000  0.25000000  1
  H  H42  1  0.05550000  0.28790000  0.84470000  1
  H  H43  1  0.05550000  0.28790000  0.15530000  1
  H  H44  1  0.05550000  0.76760000  0.65530000  1
  H  H45  1  0.05550000  0.76760000  0.34470000  1
  C  C46  1  0.89150000  0.21370000  0.69400000  1
  C  C47  1  0.89150000  0.21370000  0.30600000  1
  C  C48  1  0.89150000  0.67780000  0.80600000  1
  C  C49  1  0.89150000  0.67780000  0.19400000  1
  C  C50  1  0.86530000  0.13470000  0.75000000  1
  C  C51  1  0.86530000  0.13470000  0.25000000  1
  C  C52  1  0.86530000  0.73060000  0.75000000  1
  C  C53  1  0.86530000  0.73060000  0.25000000  1
  C  C54  1  0.86110000  0.35290000  0.63880000  1
  C  C55  1  0.86110000  0.35290000  0.36120000  1
  C  C56  1  0.86110000  0.50820000  0.86120000  1
  C  C57  1  0.86110000  0.50820000  0.13880000  1
  C  C58  1  0.83830000  0.26470000  0.69610000  1
  C  C59  1  0.83830000  0.26470000  0.30390000  1
  C  C60  1  0.83830000  0.57360000  0.80390000  1
  C  C61  1  0.83830000  0.57360000  0.19610000  1
  C  C62  1  0.78630000  0.10850000  0.80600000  1
  C  C63  1  0.78630000  0.10850000  0.19400000  1
  C  C64  1  0.78630000  0.67780000  0.69400000  1
  C  C65  1  0.78630000  0.67780000  0.30600000  1
  C  C66  1  0.73530000  0.16170000  0.80390000  1
  C  C67  1  0.73530000  0.16170000  0.19610000  1
  C  C68  1  0.73530000  0.57360000  0.69610000  1
  C  C69  1  0.73530000  0.57360000  0.30390000  1
  C  C70  1  0.73060000  0.86530000  0.75000000  1
  C  C71  1  0.73060000  0.86530000  0.25000000  1
  C  C72  1  0.67780000  0.78630000  0.80600000  1
  C  C73  1  0.67780000  0.78630000  0.19400000  1
  C  C74  1  0.67780000  0.89150000  0.69400000  1
  C  C75  1  0.67780000  0.89150000  0.30600000  1
  C  C76  1  0.64710000  0.13890000  0.86120000  1
  C  C77  1  0.64710000  0.13890000  0.13880000  1
  C  C78  1  0.64710000  0.50820000  0.63880000  1
  C  C79  1  0.64710000  0.50820000  0.36120000  1
  C  C80  1  0.57360000  0.73530000  0.80390000  1
  C  C81  1  0.57360000  0.73530000  0.19610000  1
  C  C82  1  0.57360000  0.83830000  0.69610000  1
  C  C83  1  0.57360000  0.83830000  0.30390000  1
  C  C84  1  0.50820000  0.64710000  0.86120000  1
  C  C85  1  0.50820000  0.64710000  0.13880000  1
  C  C86  1  0.50820000  0.86110000  0.63880000  1
  C  C87  1  0.50820000  0.86110000  0.36120000  1
  C  C88  1  0.49180000  0.13890000  0.63880000  1
  C  C89  1  0.49180000  0.13890000  0.36120000  1
  C  C90  1  0.49180000  0.35290000  0.86120000  1
  C  C91  1  0.49180000  0.35290000  0.13880000  1
  C  C92  1  0.42640000  0.16170000  0.69610000  1
  C  C93  1  0.42640000  0.16170000  0.30390000  1
  C  C94  1  0.42640000  0.26470000  0.80390000  1
  C  C95  1  0.42640000  0.26470000  0.19610000  1
  C  C96  1  0.35290000  0.49180000  0.63880000  1
  C  C97  1  0.35290000  0.49180000  0.36120000  1
  C  C98  1  0.35290000  0.86110000  0.86120000  1
  C  C99  1  0.35290000  0.86110000  0.13880000  1
  C  C100  1  0.32220000  0.10850000  0.69400000  1
  C  C101  1  0.32220000  0.10850000  0.30600000  1
  C  C102  1  0.32220000  0.21370000  0.80600000  1
  C  C103  1  0.32220000  0.21370000  0.19400000  1
  C  C104  1  0.26940000  0.13470000  0.75000000  1
  C  C105  1  0.26940000  0.13470000  0.25000000  1
  C  C106  1  0.26470000  0.42640000  0.69610000  1
  C  C107  1  0.26470000  0.42640000  0.30390000  1
  C  C108  1  0.26470000  0.83830000  0.80390000  1
  C  C109  1  0.26470000  0.83830000  0.19610000  1
  C  C110  1  0.21370000  0.32220000  0.69400000  1
  C  C111  1  0.21370000  0.32220000  0.30600000  1
  C  C112  1  0.21370000  0.89150000  0.80600000  1
  C  C113  1  0.21370000  0.89150000  0.19400000  1
  C  C114  1  0.16170000  0.42640000  0.80390000  1
  C  C115  1  0.16170000  0.42640000  0.19610000  1
  C  C116  1  0.16170000  0.73530000  0.69610000  1
  C  C117  1  0.16170000  0.73530000  0.30390000  1
  C  C118  1  0.13890000  0.49180000  0.86120000  1
  C  C119  1  0.13890000  0.49180000  0.13880000  1
  C  C120  1  0.13890000  0.64710000  0.63880000  1
  C  C121  1  0.13890000  0.64710000  0.36120000  1
  C  C122  1  0.13470000  0.26940000  0.75000000  1
  C  C123  1  0.13470000  0.26940000  0.25000000  1
  C  C124  1  0.13470000  0.86530000  0.75000000  1
  C  C125  1  0.13470000  0.86530000  0.25000000  1
  C  C126  1  0.10850000  0.32220000  0.80600000  1
  C  C127  1  0.10850000  0.32220000  0.19400000  1
  C  C128  1  0.10850000  0.78630000  0.69400000  1
  C  C129  1  0.10850000  0.78630000  0.30600000  1
  N  N130  1  0.76110000  0.23890000  0.75000000  1
  N  N131  1  0.76110000  0.23890000  0.25000000  1
  N  N132  1  0.76110000  0.52220000  0.75000000  1
  N  N133  1  0.76110000  0.52220000  0.25000000  1
  N  N134  1  0.52220000  0.76110000  0.75000000  1
  N  N135  1  0.52220000  0.76110000  0.25000000  1
  N  N136  1  0.47780000  0.23890000  0.75000000  1
  N  N137  1  0.47780000  0.23890000  0.25000000  1
  N  N138  1  0.23890000  0.47780000  0.75000000  1
  N  N139  1  0.23890000  0.47780000  0.25000000  1
  N  N140  1  0.23890000  0.76110000  0.75000000  1
  N  N141  1  0.23890000  0.76110000  0.25000000  1
  O  O142  1  0.93690000  0.38480000  0.59200000  1
  O  O143  1  0.93690000  0.38480000  0.40800000  1
  O  O144  1  0.93690000  0.55210000  0.90800000  1
  O  O145  1  0.93690000  0.55210000  0.09200000  1
  O  O146  1  0.80110000  0.38750000  0.64348000  1
  O  O147  1  0.80110000  0.38750000  0.35652000  1
  O  O148  1  0.80110000  0.41360000  0.85652000  1
  O  O149  1  0.80110000  0.41360000  0.14348000  1
  O  O150  1  0.61520000  0.06310000  0.90800000  1
  O  O151  1  0.61520000  0.06310000  0.09200000  1
  O  O152  1  0.61520000  0.55210000  0.59200000  1
  O  O153  1  0.61520000  0.55210000  0.40800000  1
  O  O154  1  0.61250000  0.19890000  0.85652000  1
  O  O155  1  0.61250000  0.19890000  0.14348000  1
  O  O156  1  0.61250000  0.41360000  0.64348000  1
  O  O157  1  0.61250000  0.41360000  0.35652000  1
  O  O158  1  0.58640000  0.19890000  0.64348000  1
  O  O159  1  0.58640000  0.19890000  0.35652000  1
  O  O160  1  0.58640000  0.38750000  0.85652000  1
  O  O161  1  0.58640000  0.38750000  0.14348000  1
  O  O162  1  0.55210000  0.61520000  0.90800000  1
  O  O163  1  0.55210000  0.61520000  0.09200000  1
  O  O164  1  0.55210000  0.93690000  0.59200000  1
  O  O165  1  0.55210000  0.93690000  0.40800000  1
  O  O166  1  0.44790000  0.06310000  0.59200000  1
  O  O167  1  0.44790000  0.06310000  0.40800000  1
  O  O168  1  0.44790000  0.38480000  0.90800000  1
  O  O169  1  0.44790000  0.38480000  0.09200000  1
  O  O170  1  0.41360000  0.61250000  0.85652000  1
  O  O171  1  0.41360000  0.61250000  0.14348000  1
  O  O172  1  0.41360000  0.80110000  0.64348000  1
  O  O173  1  0.41360000  0.80110000  0.35652000  1
  O  O174  1  0.38750000  0.58640000  0.64348000  1
  O  O175  1  0.38750000  0.58640000  0.35652000  1
  O  O176  1  0.38750000  0.80110000  0.85652000  1
  O  O177  1  0.38750000  0.80110000  0.14348000  1
  O  O178  1  0.38480000  0.44790000  0.59200000  1
  O  O179  1  0.38480000  0.44790000  0.40800000  1
  O  O180  1  0.38480000  0.93690000  0.90800000  1
  O  O181  1  0.38480000  0.93690000  0.09200000  1
  O  O182  1  0.19890000  0.58640000  0.85652000  1
  O  O183  1  0.19890000  0.58640000  0.14348000  1
  O  O184  1  0.19890000  0.61250000  0.64348000  1
  O  O185  1  0.19890000  0.61250000  0.35652000  1
  O  O186  1  0.06310000  0.44790000  0.90800000  1
  O  O187  1  0.06310000  0.44790000  0.09200000  1
  O  O188  1  0.06310000  0.61520000  0.59200000  1
  O  O189  1  0.06310000  0.61520000  0.40800000  1
