# generated using pymatgen
data_Mn3H57C51N8O9
_symmetry_space_group_name_H-M   'P 1'
_cell_length_a   17.20400000
_cell_length_b   30.02920000
_cell_length_c   30.02920337
_cell_angle_alpha   85.29327606
_cell_angle_beta   73.35417848
_cell_angle_gamma   73.35420000
_symmetry_Int_Tables_number   1
_chemical_formula_structural   Mn3H57C51N8O9
_chemical_formula_sum   'Mn24 H456 C408 N64 O72'
_cell_volume   14240.75809294
_cell_formula_units_Z   8
loop_
 _symmetry_equiv_pos_site_id
 _symmetry_equiv_pos_as_xyz
  1  'x, y, z'
loop_
 _atom_site_type_symbol
 _atom_site_label
 _atom_site_symmetry_multiplicity
 _atom_site_fract_x
 _atom_site_fract_y
 _atom_site_fract_z
 _atom_site_occupancy
  Mn  Mn0  1  0.58627000  0.41604000  0.35684000  1
  Mn  Mn1  1  0.28502000  0.92209000  0.49996000  1
  Mn  Mn2  1  0.23869000  0.61939000  0.53595000  1
  Mn  Mn3  1  0.64192000  0.46405000  0.11939000  1
  Mn  Mn4  1  0.29289000  0.50004000  0.42210000  1
  Mn  Mn5  1  0.70706000  0.57791000  0.00004000  1
  Mn  Mn6  1  0.78497000  0.00004000  0.92210000  1
  Mn  Mn7  1  0.60597000  0.11939000  0.03595000  1
  Mn  Mn8  1  0.05689000  0.85684000  0.58396000  1
  Mn  Mn9  1  0.22536000  0.03595000  0.38061000  1
  Mn  Mn10  1  0.50231000  0.35684000  0.08396000  1
  Mn  Mn11  1  0.35915000  0.08396000  0.14316000  1
  Mn  Mn12  1  0.64085000  0.91604000  0.85684000  1
  Mn  Mn13  1  0.49769000  0.64316000  0.91604000  1
  Mn  Mn14  1  0.77464000  0.96405000  0.61939000  1
  Mn  Mn15  1  0.94311000  0.14316000  0.41604000  1
  Mn  Mn16  1  0.39403000  0.88061000  0.96405000  1
  Mn  Mn17  1  0.21503000  0.99996000  0.07790000  1
  Mn  Mn18  1  0.29294000  0.42209000  0.99996000  1
  Mn  Mn19  1  0.70711000  0.49996000  0.57790000  1
  Mn  Mn20  1  0.35808000  0.53595000  0.88061000  1
  Mn  Mn21  1  0.76131000  0.38061000  0.46405000  1
  Mn  Mn22  1  0.71498000  0.07791000  0.50004000  1
  Mn  Mn23  1  0.41373000  0.58396000  0.64316000  1
  H  H24  1  0.87920000  0.86580000  0.11260000  1
  H  H25  1  0.35410000  0.98050000  0.63650000  1
  H  H26  1  0.14070000  0.94680000  0.84760000  1
  H  H27  1  0.10150000  0.79140000  0.88320000  1
  H  H28  1  0.51980000  0.38870000  0.46470000  1
  H  H29  1  0.66460000  0.20970000  0.31570000  1
  H  H30  1  0.91650000  0.20670000  0.06150000  1
  H  H31  1  0.87550000  0.35070000  0.09770000  1
  H  H32  1  0.99060000  0.86350000  0.98050000  1
  H  H33  1  0.45280000  0.41600000  0.50960000  1
  H  H34  1  0.04600000  0.98650000  0.91210000  1
  H  H35  1  0.77150000  0.39830000  0.18610000  1
  H  H36  1  0.21200000  0.91080000  0.74460000  1
  H  H37  1  0.43910000  0.34060000  0.51580000  1
  H  H38  1  0.39050000  0.47310000  0.56430000  1
  H  H39  1  0.46750000  0.08790000  0.48650000  1
  H  H40  1  0.58440000  0.15720000  0.36640000  1
  H  H41  1  0.95810000  0.58790000  0.98650000  1
  H  H42  1  0.93410000  0.47880000  0.01000000  1
  H  H43  1  0.81680000  0.16670000  0.12590000  1
  H  H44  1  0.37430000  0.84610000  0.56730000  1
  H  H45  1  0.50020000  0.31920000  0.43540000  1
  H  H46  1  0.98830000  0.65240000  0.94680000  1
  H  H47  1  0.91290000  0.01000000  0.02120000  1
  H  H48  1  0.50440000  0.72920000  0.42680000  1
  H  H49  1  0.09120000  0.57130000  0.83910000  1
  H  H50  1  0.28790000  0.47180000  0.63940000  1
  H  H51  1  0.86320000  0.88580000  0.06400000  1
  H  H52  1  0.79530000  0.94940000  0.12380000  1
  H  H53  1  0.62320000  0.06150000  0.29330000  1
  H  H54  1  0.48930000  0.80740000  0.42620000  1
  H  H55  1  0.42290000  0.02120000  0.49000000  1
  H  H56  1  0.83750000  0.16090000  0.07130000  1
  H  H57  1  0.42080000  0.27050000  0.48410000  1
  H  H58  1  0.80700000  0.85450000  0.09550000  1
  H  H59  1  0.65580000  0.40470000  0.24650000  1
  H  H60  1  0.47770000  0.57530000  0.42330000  1
  H  H61  1  0.80810000  0.27670000  0.09270000  1
  H  H62  1  0.60710000  0.11680000  0.29140000  1
  H  H63  1  0.30410000  0.41190000  0.59130000  1
  H  H64  1  0.58440000  0.28500000  0.30800000  1
  H  H65  1  0.19200000  0.96840000  0.70000000  1
  H  H66  1  0.04920000  0.86640000  0.84280000  1
  H  H67  1  0.73700000  0.91810000  0.15430000  1
  H  H68  1  0.05730000  0.62590000  0.83330000  1
  H  H69  1  0.22290000  0.58440000  0.66440000  1
  H  H70  1  0.31980000  0.98180000  0.56680000  1
  H  H71  1  0.11400000  0.92510000  0.77230000  1
  H  H72  1  0.46090000  0.22770000  0.42510000  1
  H  H73  1  0.24500000  0.80620000  0.63640000  1
  H  H74  1  0.24500000  0.11260000  0.63420000  1
  H  H75  1  0.72620000  0.09770000  0.14930000  1
  H  H76  1  0.14720000  0.89140000  0.72820000  1
  H  H77  1  0.39930000  0.69780000  0.47420000  1
  H  H78  1  0.91910000  0.37620000  0.94940000  1
  H  H79  1  0.88660000  0.93320000  0.98180000  1
  H  H80  1  0.95660000  0.75540000  0.91080000  1
  H  H81  1  0.24900000  0.06400000  0.61420000  1
  H  H82  1  0.31770000  0.50860000  0.54540000  1
  H  H83  1  0.89200000  0.80000000  0.96840000  1
  H  H84  1  0.35620000  0.37290000  0.50330000  1
  H  H85  1  0.41250000  0.15240000  0.44680000  1
  H  H86  1  0.99180000  0.38740000  0.86580000  1
  H  H87  1  0.46140000  0.27180000  0.39140000  1
  H  H88  1  0.19060000  0.41810000  0.65430000  1
  H  H89  1  0.47980000  0.62490000  0.36030000  1
  H  H90  1  0.41540000  0.35000000  0.42420000  1
  H  H91  1  0.24300000  0.35450000  0.59550000  1
  H  H92  1  0.49840000  0.07130000  0.33910000  1
  H  H93  1  0.97110000  0.51950000  0.86350000  1
  H  H94  1  0.21570000  0.50530000  0.61890000  1
  H  H95  1  0.23360000  0.74560000  0.59780000  1
  H  H96  1  0.09510000  0.98410000  0.72950000  1
  H  H97  1  0.10760000  0.80800000  0.71500000  1
  H  H98  1  0.09920000  0.59270000  0.72330000  1
  H  H99  1  0.43070000  0.55860000  0.39160000  1
  H  H100  1  0.41570000  0.65430000  0.40470000  1
  H  H101  1  0.48346667  0.12590000  0.33333333  1
  H  H102  1  0.02200000  0.56150000  0.79330000  1
  H  H103  1  0.92720000  0.43600000  0.88580000  1
  H  H104  1  0.88630000  0.72770000  0.92510000  1
  H  H105  1  0.16040000  0.92420000  0.65000000  1
  H  H106  1  0.74730000  0.94520000  0.06300000  1
  H  H107  1  0.01970000  0.81570000  0.79030000  1
  H  H108  1  0.89130000  0.34570000  0.91810000  1
  H  H109  1  0.82460000  0.77050000  0.98410000  1
  H  H110  1  0.58480000  0.09270000  0.22330000  1
  H  H111  1  0.33960000  0.30000000  0.46840000  1
  H  H112  1  0.24450000  0.44520000  0.56300000  1
  H  H113  1  0.16150000  0.09550000  0.64550000  1
  H  H114  1  0.86840000  0.51820000  0.93320000  1
  H  H115  1  0.72290000  0.69260000  0.07380000  1
  H  H116  1  0.24470000  0.12380000  0.55060000  1
  H  H117  1  0.27230000  0.74840000  0.51580000  1
  H  H118  1  0.37720000  0.25540000  0.41080000  1
  H  H119  1  0.94160000  0.93270000  0.84610000  1
  H  H120  1  0.77900000  0.38110000  0.00530000  1
  H  H121  1  0.69270000  0.91190000  0.09130000  1
  H  H122  1  0.66010000  0.00530000  0.11890000  1
  H  H123  1  0.69270000  0.33560000  0.08440000  1
  H  H124  1  0.98470000  0.61680000  0.79140000  1
  H  H125  1  0.66980000  0.18610000  0.10170000  1
  H  H126  1  0.76760000  0.87290000  0.00330000  1
  H  H127  1  0.14050000  0.00330000  0.62710000  1
  H  H128  1  0.87540000  0.77180000  0.89140000  1
  H  H129  1  0.52080000  0.40220000  0.24560000  1
  H  H130  1  0.56410000  0.67360000  0.20180000  1
  H  H131  1  0.89200000  0.65720000  0.86640000  1
  H  H132  1  0.90250000  0.40450000  0.85450000  1
  H  H133  1  0.81030000  0.43700000  0.94520000  1
  H  H134  1  0.13150000  0.44940000  0.62380000  1
  H  H135  1  0.14240000  0.36580000  0.61260000  1
  H  H136  1  0.44880000  0.36360000  0.30620000  1
  H  H137  1  0.41920000  0.78540000  0.33320000  1
  H  H138  1  0.18700000  0.38580000  0.56400000  1
  H  H139  1  0.19250000  0.06300000  0.55480000  1
  H  H140  1  0.06440000  0.93540000  0.68080000  1
  H  H141  1  0.60090000  0.97180000  0.13940000  1
  H  H142  1  0.43950000  0.82640000  0.29820000  1
  H  H143  1  0.15510000  0.15430000  0.58190000  1
  H  H144  1  0.81040000  0.85000000  0.92420000  1
  H  H145  1  0.66040000  0.77080000  0.07320000  1
  H  H146  1  0.47930000  0.48420000  0.24840000  1
  H  H147  1  0.32390000  0.14930000  0.40230000  1
  H  H148  1  0.91550000  0.07380000  0.80740000  1
  H  H149  1  0.78770000  0.65390000  0.93270000  1
  H  H150  1  0.70450000  0.84060000  0.01580000  1
  H  H151  1  0.41280000  0.67720000  0.30480000  1
  H  H152  1  0.74030000  0.36060000  0.97180000  1
  H  H153  1  0.48460000  0.71740000  0.22040000  1
  H  H154  1  0.53780000  0.71460000  0.16680000  1
  H  H155  1  0.04510000  0.01580000  0.65940000  1
  H  H156  1  0.36190000  0.61340000  0.34020000  1
  H  H157  1  0.42240000  0.78260000  0.27960000  1
  H  H158  1  0.55390000  0.61720000  0.14600000  1
  H  H159  1  0.34970000  0.70980000  0.34720000  1
  H  H160  1  0.78400000  0.40870000  0.91190000  1
  H  H161  1  0.09770000  0.74650000  0.59530000  1
  H  H162  1  0.10460000  0.09130000  0.58810000  1
  H  H163  1  0.52830000  0.08440000  0.16440000  1
  H  H164  1  0.88140000  0.86360000  0.80620000  1
  H  H165  1  0.29790000  0.84020000  0.38660000  1
  H  H166  1  0.30010000  0.64600000  0.38280000  1
  H  H167  1  0.67370000  0.45460000  0.00860000  1
  H  H168  1  0.74520000  0.81920000  0.93540000  1
  H  H169  1  0.19840000  0.43320000  0.48180000  1
  H  H170  1  0.02680000  0.59770000  0.64930000  1
  H  H171  1  0.62830000  0.00860000  0.04540000  1
  H  H172  1  0.31710000  0.88280000  0.35400000  1
  H  H173  1  0.35590000  0.10170000  0.31390000  1
  H  H174  1  0.37430000  0.31570000  0.29030000  1
  H  H175  1  0.86040000  0.53160000  0.80000000  1
  H  H176  1  0.93120000  0.07320000  0.72920000  1
  H  H177  1  0.16540000  0.11890000  0.49470000  1
  H  H178  1  0.56050000  0.24650000  0.09530000  1
  H  H179  1  0.44050000  0.65280000  0.20980000  1
  H  H180  1  0.16540000  0.36350000  0.48050000  1
  H  H181  1  0.04240000  0.68610000  0.60170000  1
  H  H182  1  0.77090000  0.49670000  0.87290000  1
  H  H183  1  0.52470000  0.65980000  0.11340000  1
  H  H184  1  0.57210000  0.97310000  0.06430000  1
  H  H185  1  0.62160000  0.91600000  0.00960000  1
  H  H186  1  0.82260000  0.78500000  0.80800000  1
  H  H187  1  0.13690000  0.04540000  0.49140000  1
  H  H188  1  0.01550000  0.96470000  0.61130000  1
  H  H189  1  0.81000000  0.70970000  0.81570000  1
  H  H190  1  0.27960000  0.43270000  0.34610000  1
  H  H191  1  0.18470000  0.29330000  0.43850000  1
  H  H192  1  0.86740000  0.58920000  0.75540000  1
  H  H193  1  0.03760000  0.00960000  0.58400000  1
  H  H194  1  0.17770000  0.89160000  0.44140000  1
  H  H195  1  0.63640000  0.43570000  0.97310000  1
  H  H196  1  0.22390000  0.29140000  0.38320000  1
  H  H197  1  0.28240000  0.80480000  0.32280000  1
  H  H198  1  0.46500000  0.87510000  0.13970000  1
  H  H199  1  0.07270000  0.13940000  0.52820000  1
  H  H200  1  0.40290000  0.52580000  0.19780000  1
  H  H201  1  0.57130000  0.80220000  0.02580000  1
  H  H202  1  0.30310000  0.84720000  0.29020000  1
  H  H203  1  0.62680000  0.88870000  0.96470000  1
  H  H204  1  0.39480000  0.82280000  0.19520000  1
  H  H205  1  0.93510000  0.55320000  0.65240000  1
  H  H206  1  0.41000000  0.69520000  0.17720000  1
  H  H207  1  0.17750000  0.22330000  0.40730000  1
  H  H208  1  0.73460000  0.57580000  0.85000000  1
  H  H209  1  0.24160000  0.36640000  0.34280000  1
  H  H210  1  0.36940000  0.30800000  0.21500000  1
  H  H211  1  0.43000000  0.59530000  0.15430000  1
  H  H212  1  0.29540000  0.66680000  0.28540000  1
  H  H213  1  0.80870000  0.51590000  0.77050000  1
  H  H214  1  0.29500000  0.72040000  0.28260000  1
  H  H215  1  0.05590000  0.51000000  0.52120000  1
  H  H216  1  0.83140000  0.90220000  0.74560000  1
  H  H217  1  0.04520000  0.06430000  0.52690000  1
  H  H218  1  0.87350000  0.02580000  0.69780000  1
  H  H219  1  0.47470000  0.84570000  0.09530000  1
  H  H220  1  0.51070000  0.60840000  0.05860000  1
  H  H221  1  0.73770000  0.20180000  0.82640000  1
  H  H222  1  0.72030000  0.48420000  0.84060000  1
  H  H223  1  0.23410000  0.70180000  0.32640000  1
  H  H224  1  0.30700000  0.09530000  0.25350000  1
  H  H225  1  0.40670000  0.79020000  0.15280000  1
  H  H226  1  0.67110000  0.14600000  0.88280000  1
  H  H227  1  0.47630000  0.92470000  0.07670000  1
  H  H228  1  0.68760000  0.69380000  0.86360000  1
  H  H229  1  0.63120000  0.49040000  0.91600000  1
  H  H230  1  0.81140000  0.57490000  0.72770000  1
  H  H231  1  0.76680000  0.60860000  0.77180000  1
  H  H232  1  0.75240000  0.16680000  0.78540000  1
  H  H233  1  0.78810000  0.98420000  0.74840000  1
  H  H234  1  0.15990000  0.86030000  0.37510000  1
  H  H235  1  0.94460000  0.51350000  0.58790000  1
  H  H236  1  0.11270000  0.16440000  0.41560000  1
  H  H237  1  0.17960000  0.90470000  0.34570000  1
  H  H238  1  0.68450000  0.11340000  0.84020000  1
  H  H239  1  0.09900000  0.92330000  0.42470000  1
  H  H240  1  0.44700000  0.57670000  0.07530000  1
  H  H241  1  0.42300000  0.24560000  0.09780000  1
  H  H242  1  0.53650000  0.75160000  0.98420000  1
  H  H243  1  0.39530000  0.63970000  0.12490000  1
  H  H244  1  0.40850000  0.46470000  0.11130000  1
  H  H245  1  0.89060000  0.66666667  0.62590000  1
  H  H246  1  0.29800000  0.77960000  0.21740000  1
  H  H247  1  0.20330000  0.57380000  0.30740000  1
  H  H248  1  0.61910000  0.05860000  0.89160000  1
  H  H249  1  0.73360000  0.42680000  0.77080000  1
  H  H250  1  0.93030000  0.66090000  0.57130000  1
  H  H251  1  0.31940000  0.43540000  0.18080000  1
  H  H252  1  0.68060000  0.56460000  0.81920000  1
  H  H253  1  0.06970000  0.33910000  0.42870000  1
  H  H254  1  0.26640000  0.57320000  0.22920000  1
  H  H255  1  0.38090000  0.94140000  0.10840000  1
  H  H256  1  0.79670000  0.42620000  0.69260000  1
  H  H257  1  0.70200000  0.22040000  0.78260000  1
  H  H258  1  0.10940000  0.33333333  0.37410000  1
  H  H259  1  0.59150000  0.53530000  0.88870000  1
  H  H260  1  0.60470000  0.36030000  0.87510000  1
  H  H261  1  0.46350000  0.24840000  0.01580000  1
  H  H262  1  0.57700000  0.75440000  0.90220000  1
  H  H263  1  0.55300000  0.42330000  0.92470000  1
  H  H264  1  0.90100000  0.07670000  0.57530000  1
  H  H265  1  0.31550000  0.88660000  0.15980000  1
  H  H266  1  0.82040000  0.09530000  0.65430000  1
  H  H267  1  0.88730000  0.83560000  0.58440000  1
  H  H268  1  0.05540000  0.48650000  0.41210000  1
  H  H269  1  0.84010000  0.13970000  0.62490000  1
  H  H270  1  0.21190000  0.01580000  0.25160000  1
  H  H271  1  0.24760000  0.83320000  0.21460000  1
  H  H272  1  0.23320000  0.39140000  0.22820000  1
  H  H273  1  0.18860000  0.42510000  0.27230000  1
  H  H274  1  0.36880000  0.50960000  0.08400000  1
  H  H275  1  0.31240000  0.30620000  0.13640000  1
  H  H276  1  0.52370000  0.07530000  0.92330000  1
  H  H277  1  0.32890000  0.85400000  0.11720000  1
  H  H278  1  0.59330000  0.20980000  0.84720000  1
  H  H279  1  0.69300000  0.90470000  0.74650000  1
  H  H280  1  0.76590000  0.29820000  0.67360000  1
  H  H281  1  0.27970000  0.51580000  0.15940000  1
  H  H282  1  0.26230000  0.79820000  0.17360000  1
  H  H283  1  0.48930000  0.39160000  0.94140000  1
  H  H284  1  0.52530000  0.15430000  0.90470000  1
  H  H285  1  0.12650000  0.97420000  0.30220000  1
  H  H286  1  0.95480000  0.93570000  0.47310000  1
  H  H287  1  0.16860000  0.09780000  0.25440000  1
  H  H288  1  0.94410000  0.49000000  0.47880000  1
  H  H289  1  0.70500000  0.27960000  0.71740000  1
  H  H290  1  0.19130000  0.48410000  0.22950000  1
  H  H291  1  0.70460000  0.33320000  0.71460000  1
  H  H292  1  0.57000000  0.40470000  0.84570000  1
  H  H293  1  0.63060000  0.69200000  0.78500000  1
  H  H294  1  0.75840000  0.63360000  0.65720000  1
  H  H295  1  0.26540000  0.42420000  0.15000000  1
  H  H296  1  0.82250000  0.77670000  0.59270000  1
  H  H297  1  0.59000000  0.30480000  0.82280000  1
  H  H298  1  0.06490000  0.44680000  0.34760000  1
  H  H299  1  0.60520000  0.17720000  0.80480000  1
  H  H300  1  0.37320000  0.11130000  0.03530000  1
  H  H301  1  0.69690000  0.15280000  0.70980000  1
  H  H302  1  0.42870000  0.19780000  0.97420000  1
  H  H303  1  0.59710000  0.47420000  0.80220000  1
  H  H304  1  0.92730000  0.86060000  0.47180000  1
  H  H305  1  0.53500000  0.12490000  0.86030000  1
  H  H306  1  0.71760000  0.19520000  0.67720000  1
  H  H307  1  0.77610000  0.70860000  0.61680000  1
  H  H308  1  0.36360000  0.56430000  0.02690000  1
  H  H309  1  0.82230000  0.10840000  0.55860000  1
  H  H310  1  0.96240000  0.99040000  0.41600000  1
  H  H311  1  0.13260000  0.41080000  0.24460000  1
  H  H312  1  0.81530000  0.70670000  0.56150000  1
  H  H313  1  0.72040000  0.56730000  0.65390000  1
  H  H314  1  0.19000000  0.29030000  0.18430000  1
  H  H315  1  0.98450000  0.03530000  0.38870000  1
  H  H316  1  0.86310000  0.95460000  0.50860000  1
  H  H317  1  0.17740000  0.21500000  0.19200000  1
  H  H318  1  0.37840000  0.08400000  0.99040000  1
  H  H319  1  0.42790000  0.02690000  0.93570000  1
  H  H320  1  0.47530000  0.34020000  0.88660000  1
  H  H321  1  0.22910000  0.50330000  0.12710000  1
  H  H322  1  0.95760000  0.31390000  0.39830000  1
  H  H323  1  0.83460000  0.63650000  0.51950000  1
  H  H324  1  0.55950000  0.34720000  0.79020000  1
  H  H325  1  0.43950000  0.75350000  0.90470000  1
  H  H326  1  0.83460000  0.88110000  0.50530000  1
  H  H327  1  0.06880000  0.92680000  0.27080000  1
  H  H328  1  0.13960000  0.46840000  0.20000000  1
  H  H329  1  0.62570000  0.68430000  0.70970000  1
  H  H330  1  0.64410000  0.89830000  0.68610000  1
  H  H331  1  0.68290000  0.11720000  0.64600000  1
  H  H332  1  0.37170000  0.99140000  0.95460000  1
  H  H333  1  0.97320000  0.40230000  0.35070000  1
  H  H334  1  0.80160000  0.56680000  0.51820000  1
  H  H335  1  0.25480000  0.18080000  0.06460000  1
  H  H336  1  0.32630000  0.54540000  0.99140000  1
  H  H337  1  0.69990000  0.35400000  0.61720000  1
  H  H338  1  0.70210000  0.15980000  0.61340000  1
  H  H339  1  0.11860000  0.13640000  0.19380000  1
  H  H340  1  0.47170000  0.91560000  0.83560000  1
  H  H341  1  0.89540000  0.90870000  0.41190000  1
  H  H342  1  0.90230000  0.25350000  0.40470000  1
  H  H343  1  0.21600000  0.59130000  0.08810000  1
  H  H344  1  0.65030000  0.29020000  0.65280000  1
  H  H345  1  0.44610000  0.38280000  0.85400000  1
  H  H346  1  0.57760000  0.21740000  0.72040000  1
  H  H347  1  0.63810000  0.38660000  0.65980000  1
  H  H348  1  0.95490000  0.98420000  0.34060000  1
  H  H349  1  0.46220000  0.28540000  0.83320000  1
  H  H350  1  0.51540000  0.28260000  0.77960000  1
  H  H351  1  0.25970000  0.63940000  0.02820000  1
  H  H352  1  0.58720000  0.32280000  0.69520000  1
  H  H353  1  0.29550000  0.15940000  0.98420000  1
  H  H354  1  0.21230000  0.34610000  0.06730000  1
  H  H355  1  0.08450000  0.92620000  0.19260000  1
  H  H356  1  0.67610000  0.85070000  0.59770000  1
  H  H357  1  0.52070000  0.51580000  0.75160000  1
  H  H358  1  0.33960000  0.22920000  0.92680000  1
  H  H359  1  0.18960000  0.15000000  0.07580000  1
  H  H360  1  0.84490000  0.84570000  0.41810000  1
  H  H361  1  0.56050000  0.17360000  0.70180000  1
  H  H362  1  0.39910000  0.02820000  0.86060000  1
  H  H363  1  0.93560000  0.06460000  0.31920000  1
  H  H364  1  0.80750000  0.93700000  0.44520000  1
  H  H365  1  0.81300000  0.61420000  0.43600000  1
  H  H366  1  0.58080000  0.21460000  0.66680000  1
  H  H367  1  0.55120000  0.63640000  0.69380000  1
  H  H368  1  0.85760000  0.63420000  0.38740000  1
  H  H369  1  0.86850000  0.55060000  0.37620000  1
  H  H370  1  0.18970000  0.56300000  0.05480000  1
  H  H371  1  0.09750000  0.59550000  0.14550000  1
  H  H372  1  0.10800000  0.34280000  0.13360000  1
  H  H373  1  0.43590000  0.32640000  0.79820000  1
  H  H374  1  0.47920000  0.59780000  0.75440000  1
  H  H375  1  0.12460000  0.22820000  0.10860000  1
  H  H376  1  0.85950000  0.99670000  0.37290000  1
  H  H377  1  0.23240000  0.12710000  0.99670000  1
  H  H378  1  0.33020000  0.81390000  0.89830000  1
  H  H379  1  0.01530000  0.38320000  0.20860000  1
  H  H380  1  0.30730000  0.66440000  0.91560000  1
  H  H381  1  0.33990000  0.99470000  0.88110000  1
  H  H382  1  0.30730000  0.08810000  0.90870000  1
  H  H383  1  0.22100000  0.61890000  0.99470000  1
  H  H384  1  0.05840000  0.06730000  0.15390000  1
  H  H385  1  0.62280000  0.74460000  0.58920000  1
  H  H386  1  0.72770000  0.25160000  0.48420000  1
  H  H387  1  0.75530000  0.87620000  0.44940000  1
  H  H388  1  0.27710000  0.30740000  0.92620000  1
  H  H389  1  0.13160000  0.48180000  0.06680000  1
  H  H390  1  0.83850000  0.90450000  0.35450000  1
  H  H391  1  0.75550000  0.55480000  0.43700000  1
  H  H392  1  0.66040000  0.70000000  0.53160000  1
  H  H393  1  0.41520000  0.90730000  0.77670000  1
  H  H394  1  0.17540000  0.22950000  0.01590000  1
  H  H395  1  0.10870000  0.65430000  0.08190000  1
  H  H396  1  0.98030000  0.18430000  0.20970000  1
  H  H397  1  0.25270000  0.05480000  0.93700000  1
  H  H398  1  0.83960000  0.07580000  0.35000000  1
  H  H399  1  0.11370000  0.27230000  0.07490000  1
  H  H400  1  0.07280000  0.56400000  0.11420000  1
  H  H401  1  0.97800000  0.43850000  0.20670000  1
  H  H402  1  0.51653333  0.87410000  0.66666667  1
  H  H403  1  0.58430000  0.34570000  0.59530000  1
  H  H404  1  0.56930000  0.44140000  0.60840000  1
  H  H405  1  0.90080000  0.40730000  0.27670000  1
  H  H406  1  0.89240000  0.19200000  0.28500000  1
  H  H407  1  0.90490000  0.01590000  0.27050000  1
  H  H408  1  0.76640000  0.25440000  0.40220000  1
  H  H409  1  0.78430000  0.49470000  0.38110000  1
  H  H410  1  0.02890000  0.48050000  0.13650000  1
  H  H411  1  0.50160000  0.92870000  0.66090000  1
  H  H412  1  0.75700000  0.64550000  0.40450000  1
  H  H413  1  0.58460000  0.65000000  0.57580000  1
  H  H414  1  0.52020000  0.37510000  0.63970000  1
  H  H415  1  0.80940000  0.58190000  0.34570000  1
  H  H416  1  0.53860000  0.72820000  0.60860000  1
  H  H417  1  0.00820000  0.61260000  0.13420000  1
  H  H418  1  0.58750000  0.84760000  0.55320000  1
  H  H419  1  0.64380000  0.62710000  0.49670000  1
  H  H420  1  0.10800000  0.20000000  0.03160000  1
  H  H421  1  0.68230000  0.49140000  0.45460000  1
  H  H422  1  0.75100000  0.93600000  0.38580000  1
  H  H423  1  0.04340000  0.24460000  0.08920000  1
  H  H424  1  0.11340000  0.06680000  0.01820000  1
  H  H425  1  0.08090000  0.62380000  0.05060000  1
  H  H426  1  0.60070000  0.30220000  0.52580000  1
  H  H427  1  0.85280000  0.10860000  0.27180000  1
  H  H428  1  0.27380000  0.90230000  0.85070000  1
  H  H429  1  0.75500000  0.88740000  0.36580000  1
  H  H430  1  0.75500000  0.19380000  0.36360000  1
  H  H431  1  0.53910000  0.77230000  0.57490000  1
  H  H432  1  0.88600000  0.07490000  0.22770000  1
  H  H433  1  0.68020000  0.01820000  0.43320000  1
  H  H434  1  0.77710000  0.41560000  0.33560000  1
  H  H435  1  0.94270000  0.37410000  0.16670000  1
  H  H436  1  0.26300000  0.08190000  0.84570000  1
  H  H437  1  0.95080000  0.13360000  0.15720000  1
  H  H438  1  0.80800000  0.03160000  0.30000000  1
  H  H439  1  0.41560000  0.71500000  0.69200000  1
  H  H440  1  0.69590000  0.58810000  0.40870000  1
  H  H441  1  0.39290000  0.88320000  0.70860000  1
  H  H442  1  0.19190000  0.72330000  0.90730000  1
  H  H443  1  0.52230000  0.42470000  0.57670000  1
  H  H444  1  0.34420000  0.59530000  0.75350000  1
  H  H445  1  0.19300000  0.14550000  0.90450000  1
  H  H446  1  0.57920000  0.72950000  0.51590000  1
  H  H447  1  0.16250000  0.83910000  0.92870000  1
  H  H448  1  0.57710000  0.97880000  0.51000000  1
  H  H449  1  0.51070000  0.19260000  0.57380000  1
  H  H450  1  0.37680000  0.93850000  0.70670000  1
  H  H451  1  0.20470000  0.05060000  0.87620000  1
  H  H452  1  0.13680000  0.11420000  0.93600000  1
  H  H453  1  0.71210000  0.52820000  0.36060000  1
  H  H454  1  0.90880000  0.42870000  0.16090000  1
  H  H455  1  0.49560000  0.27080000  0.57320000  1
  H  H456  1  0.08710000  0.99000000  0.97880000  1
  H  H457  1  0.01170000  0.34760000  0.05320000  1
  H  H458  1  0.49980000  0.68080000  0.56460000  1
  H  H459  1  0.62570000  0.15390000  0.43270000  1
  H  H460  1  0.18320000  0.83330000  0.87410000  1
  H  H461  1  0.06590000  0.52120000  0.99000000  1
  H  H462  1  0.04190000  0.41210000  0.01350000  1
  H  H463  1  0.41560000  0.84280000  0.63360000  1
  H  H464  1  0.53250000  0.91210000  0.51350000  1
  H  H465  1  0.60950000  0.52690000  0.43570000  1
  H  H466  1  0.56090000  0.65940000  0.48420000  1
  H  H467  1  0.78800000  0.08920000  0.25540000  1
  H  H468  1  0.22850000  0.60170000  0.81390000  1
  H  H469  1  0.95400000  0.01350000  0.08790000  1
  H  H470  1  0.54720000  0.58400000  0.49040000  1
  H  H471  1  0.00940000  0.13650000  0.01950000  1
  H  H472  1  0.12450000  0.64930000  0.90230000  1
  H  H473  1  0.08350000  0.79330000  0.93850000  1
  H  H474  1  0.33540000  0.79030000  0.68430000  1
  H  H475  1  0.48020000  0.61130000  0.53530000  1
  H  H476  1  0.89850000  0.20860000  0.11680000  1
  H  H477  1  0.85930000  0.05320000  0.15240000  1
  H  H478  1  0.64590000  0.01950000  0.36350000  1
  H  H479  1  0.12080000  0.13420000  0.88740000  1
  C  C480  1  0.33089000  0.76576000  0.66806000  1
  C  C481  1  0.90140000  0.18940000  0.09080000  1
  C  C482  1  0.77411000  0.40232000  0.21666000  1
  C  C483  1  0.89840000  0.02980000  0.08680000  1
  C  C484  1  0.60630000  0.12778000  0.37882000  1
  C  C485  1  0.01480000  0.58680000  0.97020000  1
  C  C486  1  0.35900000  0.95210000  0.62270000  1
  C  C487  1  0.03230000  0.62450000  0.94570000  1
  C  C488  1  0.62699000  0.31674000  0.35008000  1
  C  C489  1  0.61360000  0.08930000  0.35630000  1
  C  C490  1  0.84320000  0.05430000  0.12450000  1
  C  C491  1  0.88681000  0.37726000  0.08052000  1
  C  C492  1  0.70652000  0.40559000  0.25277000  1
  C  C493  1  0.37043000  0.87425000  0.58109000  1
  C  C494  1  0.92145000  0.45320000  0.02850000  1
  C  C495  1  0.62160000  0.27936000  0.32724000  1
  C  C496  1  0.35468000  0.53855000  0.59209000  1
  C  C497  1  0.03010000  0.85630000  0.91070000  1
  C  C498  1  0.45872000  0.40090000  0.48026000  1
  C  C499  1  0.31665000  0.69298000  0.62172000  1
  C  C500  1  0.98170000  0.87730000  0.95210000  1
  C  C501  1  0.83620000  0.87800000  0.09600000  1
  C  C502  1  0.15250000  0.59520000  0.77600000  1
  C  C503  1  0.83070000  0.18290000  0.09590000  1
  C  C504  1  0.87465000  0.02850000  0.04680000  1
  C  C505  1  0.33805000  0.95266000  0.58104000  1
  C  C506  1  0.22310000  0.58830000  0.69550000  1
  C  C507  1  0.27703000  0.77524000  0.63990000  1
  C  C508  1  0.33763000  0.49849000  0.57345000  1
  C  C509  1  0.41820000  0.36033000  0.49127000  1
  C  C510  1  0.82114000  0.41816000  0.08196000  1
  C  C511  1  0.59080000  0.09080000  0.31060000  1
  C  C512  1  0.30443000  0.65632000  0.59602000  1
  C  C513  1  0.45398000  0.74919000  0.44525000  1
  C  C514  1  0.42820000  0.08680000  0.47020000  1
  C  C515  1  0.15450000  0.91810000  0.74150000  1
  C  C516  1  0.83809000  0.45622000  0.05440000  1
  C  C517  1  0.07340000  0.59590000  0.81710000  1
  C  C518  1  0.76750000  0.92510000  0.12230000  1
  C  C519  1  0.44444000  0.79566000  0.44446000  1
  C  C520  1  0.27042000  0.73918000  0.61718000  1
  C  C521  1  0.01488000  0.87882000  0.87222000  1
  C  C522  1  0.76407000  0.08052000  0.12274000  1
  C  C523  1  0.43820000  0.33038000  0.44822000  1
  C  C524  1  0.15010000  0.59210000  0.73010000  1
  C  C525  1  0.26910000  0.48010000  0.61090000  1
  C  C526  1  0.40315000  0.04680000  0.47150000  1
  C  C527  1  0.91909000  0.91896000  0.95266000  1
  C  C528  1  0.41808000  0.43642000  0.44922000  1
  C  C529  1  0.39147000  0.73049000  0.47257000  1
  C  C530  1  0.40200000  0.28870000  0.45830000  1
  C  C531  1  0.13970000  0.95830000  0.71130000  1
  C  C532  1  0.75780000  0.26990000  0.09210000  1
  C  C533  1  0.75230000  0.22400000  0.09520000  1
  C  C534  1  0.25300000  0.43840000  0.59440000  1
  C  C535  1  0.42740000  0.25850000  0.41810000  1
  C  C536  1  0.39750000  0.12450000  0.44570000  1
  C  C537  1  0.36982000  0.82682000  0.47014000  1
  C  C538  1  0.42675000  0.58403000  0.41187000  1
  C  C539  1  0.79431000  0.05440000  0.04378000  1
  C  C540  1  0.21420000  0.09600000  0.62200000  1
  C  C541  1  0.51360000  0.09590000  0.31710000  1
  C  C542  1  0.95152000  0.91891000  0.87425000  1
  C  C543  1  0.77407000  0.49857000  0.04889000  1
  C  C544  1  0.73930000  0.08196000  0.08184000  1
  C  C545  1  0.00780000  0.59080000  0.81060000  1
  C  C546  1  0.88980000  0.37770000  0.92510000  1
  C  C547  1  0.31661000  0.76069000  0.49769000  1
  C  C548  1  0.89600000  0.75850000  0.91810000  1
  C  C549  1  0.93380000  0.54790000  0.87730000  1
  C  C550  1  0.93220000  0.40400000  0.87800000  1
  C  C551  1  0.85100000  0.78870000  0.95830000  1
  C  C552  1  0.71420000  0.93840000  0.09440000  1
  C  C553  1  0.42466000  0.62836000  0.38372000  1
  C  C554  1  0.18510000  0.42510000  0.62230000  1
  C  C555  1  0.35024000  0.58931000  0.45221000  1
  C  C556  1  0.30511000  0.80836000  0.49702000  1
  C  C557  1  0.94080000  0.58930000  0.85630000  1
  C  C558  1  0.34871000  0.04378000  0.44560000  1
  C  C559  1  0.87175000  0.54734000  0.91896000  1
  C  C560  1  0.18980000  0.37800000  0.59600000  1
  C  C561  1  0.11358000  0.94822000  0.66962000  1
  C  C562  1  0.68860000  0.30450000  0.08830000  1
  C  C563  1  0.43950000  0.47384000  0.33716000  1
  C  C564  1  0.67643000  0.21666000  0.09768000  1
  C  C565  1  0.77264000  0.04889000  0.00143000  1
  C  C566  1  0.32153000  0.00143000  0.45111000  1
  C  C567  1  0.05116000  0.82724000  0.72064000  1
  C  C568  1  0.19260000  0.12230000  0.57490000  1
  C  C569  1  0.88710000  0.62778000  0.87882000  1
  C  C570  1  0.99895000  0.83194000  0.76576000  1
  C  C571  1  0.34459000  0.12274000  0.41948000  1
  C  C572  1  0.52770000  0.09210000  0.23010000  1
  C  C573  1  0.47630000  0.09520000  0.27600000  1
  C  C574  1  0.63990000  0.98010000  0.11090000  1
  C  C575  1  0.22334000  0.83716000  0.52616000  1
  C  C576  1  0.80860000  0.40560000  0.93840000  1
  C  C577  1  0.82577000  0.62575000  0.91891000  1
  C  C578  1  0.68456000  0.70434000  0.05554000  1
  C  C579  1  0.32126000  0.08184000  0.41804000  1
  C  C580  1  0.78320000  0.83038000  0.94822000  1
  C  C581  1  0.75080000  0.38910000  0.98010000  1
  C  C582  1  0.09053000  0.99127000  0.63967000  1
  C  C583  1  0.49040000  0.38282000  0.23918000  1
  C  C584  1  0.44773000  0.36010000  0.27524000  1
  C  C585  1  0.73020000  0.86033000  0.99127000  1
  C  C586  1  0.35550000  0.64033000  0.35927000  1
  C  C587  1  0.15260000  0.09440000  0.56160000  1
  C  C588  1  0.40690000  0.80350000  0.30610000  1
  C  C589  1  0.51650000  0.69650000  0.19390000  1
  C  C590  1  0.61211000  0.25277000  0.09441000  1
  C  C591  1  0.02293000  0.85008000  0.68326000  1
  C  C592  1  0.64842000  0.75081000  0.05475000  1
  C  C593  1  0.66678000  0.67318000  0.02986000  1
  C  C594  1  0.13270000  0.94922000  0.56358000  1
  C  C595  1  0.53925000  0.40398000  0.15632000  1
  C  C596  1  0.38653000  0.50298000  0.30836000  1
  C  C597  1  0.91693000  0.86010000  0.77524000  1
  C  C598  1  0.49310000  0.08830000  0.19550000  1
  C  C599  1  0.35710000  0.68270000  0.32810000  1
  C  C600  1  0.88890000  0.05554000  0.79566000  1
  C  C601  1  0.42270000  0.50231000  0.26069000  1
  C  C602  1  0.49037000  0.37828000  0.19298000  1
  C  C603  1  0.09690000  0.58196000  0.58184000  1
  C  C604  1  0.17704000  0.54889000  0.50143000  1
  C  C605  1  0.39309000  0.09768000  0.28334000  1
  C  C606  1  0.40335000  0.33194000  0.26576000  1
  C  C607  1  0.83996000  0.02986000  0.82682000  1
  C  C608  1  0.59043000  0.99849000  0.07345000  1
  C  C609  1  0.66388000  0.42655000  0.99849000  1
  C  C610  1  0.20929000  0.41896000  0.45266000  1
  C  C611  1  0.06102000  0.98026000  0.59910000  1
  C  C612  1  0.03267000  0.58052000  0.62274000  1
  C  C613  1  0.10751000  0.55440000  0.54378000  1
  C  C614  1  0.56045000  0.54779000  0.08931000  1
  C  C615  1  0.89923000  0.05475000  0.74919000  1
  C  C616  1  0.69628000  0.93642000  0.94922000  1
  C  C617  1  0.60677000  0.40791000  0.03855000  1
  C  C618  1  0.28523000  0.85927000  0.35967000  1
  C  C619  1  0.50417000  0.64073000  0.14033000  1
  C  C620  1  0.46020000  0.67190000  0.18270000  1
  C  C621  1  0.18890000  0.37730000  0.45210000  1
  C  C622  1  0.66012000  0.90090000  0.98026000  1
  C  C623  1  0.12000000  0.11090000  0.51990000  1
  C  C624  1  0.04071000  0.75277000  0.59441000  1
  C  C625  1  0.31480000  0.82810000  0.31730000  1
  C  C626  1  0.93837000  0.87828000  0.69298000  1
  C  C627  1  0.30336000  0.52986000  0.32682000  1
  C  C628  1  0.25532000  0.41891000  0.37425000  1
  C  C629  1  0.44373000  0.35008000  0.18326000  1
  C  C630  1  0.88760000  0.88282000  0.73918000  1
  C  C631  1  0.59453000  0.76951000  0.02743000  1
  C  C632  1  0.40096000  0.32724000  0.22064000  1
  C  C633  1  0.20290000  0.35630000  0.41070000  1
  C  C634  1  0.61049000  0.69164000  0.00298000  1
  C  C635  1  0.36488000  0.09441000  0.24723000  1
  C  C636  1  0.80213000  0.00298000  0.80836000  1
  C  C637  1  0.37804000  0.52743000  0.23049000  1
  C  C638  1  0.19755000  0.95221000  0.41069000  1
  C  C639  1  0.00923000  0.71666000  0.59768000  1
  C  C640  1  0.51468000  0.03855000  0.09209000  1
  C  C641  1  0.23408000  0.37882000  0.37222000  1
  C  C642  1  0.97800000  0.55430000  0.62450000  1
  C  C643  1  0.77180000  0.77936000  0.82724000  1
  C  C644  1  0.80930000  0.54170000  0.78870000  1
  C  C645  1  0.05005000  0.52850000  0.54680000  1
  C  C646  1  0.76471000  0.73424000  0.83194000  1
  C  C647  1  0.86404000  0.02743000  0.73049000  1
  C  C648  1  0.28960000  0.69390000  0.30350000  1
  C  C649  1  0.18160000  0.31060000  0.40920000  1
  C  C650  1  0.08892000  0.07345000  0.50151000  1
  C  C651  1  0.74950000  0.97384000  0.83716000  1
  C  C652  1  0.64550000  0.55078000  0.93642000  1
  C  C653  1  0.72147000  0.50873000  0.86033000  1
  C  C654  1  0.16138000  0.91187000  0.41597000  1
  C  C655  1  0.57499000  0.73931000  0.00231000  1
  C  C656  1  0.44698000  0.61628000  0.12836000  1
  C  C657  1  0.81430000  0.00231000  0.76069000  1
  C  C658  1  0.48922000  0.58813000  0.08403000  1
  C  C659  1  0.81410000  0.58190000  0.75850000  1
  C  C660  1  0.98500000  0.52980000  0.58680000  1
  C  C661  1  0.19162000  0.88372000  0.37164000  1
  C  C662  1  0.73142000  0.55178000  0.83038000  1
  C  C663  1  0.58666000  0.66284000  0.97384000  1
  C  C664  1  0.60824000  0.08931000  0.95221000  1
  C  C665  1  0.90045000  0.90398000  0.65632000  1
  C  C666  1  0.70619000  0.81674000  0.85008000  1
  C  C667  1  0.25990000  0.55554000  0.29566000  1
  C  C668  1  0.43674000  0.87164000  0.11628000  1
  C  C669  1  0.69217000  0.72476000  0.86010000  1
  C  C670  1  0.29683000  0.55475000  0.24919000  1
  C  C671  1  0.64038000  0.51974000  0.90090000  1
  C  C672  1  0.36790000  0.81730000  0.17190000  1
  C  C673  1  0.44323000  0.15632000  0.09602000  1
  C  C674  1  0.11980000  0.23010000  0.40790000  1
  C  C675  1  0.92850000  0.72400000  0.59520000  1
  C  C676  1  0.71300000  0.19390000  0.80350000  1
  C  C677  1  0.05323000  0.09209000  0.46145000  1
  C  C678  1  0.10950000  0.31710000  0.40410000  1
  C  C679  1  0.42265000  0.91597000  0.08813000  1
  C  C680  1  0.63135000  0.80702000  0.87828000  1
  C  C681  1  0.62678000  0.76082000  0.88282000  1
  C  C682  1  0.91860000  0.80450000  0.58830000  1
  C  C683  1  0.64490000  0.14033000  0.85927000  1
  C  C684  1  0.35510000  0.85967000  0.14073000  1
  C  C685  1  0.08140000  0.19550000  0.41170000  1
  C  C686  1  0.37322000  0.23918000  0.11718000  1
  C  C687  1  0.36865000  0.19298000  0.12172000  1
  C  C688  1  0.57735000  0.08403000  0.91187000  1
  C  C689  1  0.89050000  0.68290000  0.59590000  1
  C  C690  1  0.94677000  0.90791000  0.53855000  1
  C  C691  1  0.28700000  0.80610000  0.19650000  1
  C  C692  1  0.07150000  0.27600000  0.40480000  1
  C  C693  1  0.88020000  0.76990000  0.59210000  1
  C  C694  1  0.55677000  0.84368000  0.90398000  1
  C  C695  1  0.63210000  0.18270000  0.82810000  1
  C  C696  1  0.35962000  0.48026000  0.09910000  1
  C  C697  1  0.70317000  0.44525000  0.75081000  1
  C  C698  1  0.30783000  0.27524000  0.13990000  1
  C  C699  1  0.56326000  0.12836000  0.88372000  1
  C  C700  1  0.74010000  0.44446000  0.70434000  1
  C  C701  1  0.29381000  0.18326000  0.14992000  1
  C  C702  1  0.09955000  0.09602000  0.34368000  1
  C  C703  1  0.39176000  0.91069000  0.04779000  1
  C  C704  1  0.41334000  0.33716000  0.02616000  1
  C  C705  1  0.26858000  0.44822000  0.16962000  1
  C  C706  1  0.80838000  0.11628000  0.62836000  1
  C  C707  1  0.01500000  0.47020000  0.41320000  1
  C  C708  1  0.18590000  0.41810000  0.24150000  1
  C  C709  1  0.51078000  0.41187000  0.91597000  1
  C  C710  1  0.18570000  0.99769000  0.23931000  1
  C  C711  1  0.55302000  0.38372000  0.87164000  1
  C  C712  1  0.42501000  0.26069000  0.99769000  1
  C  C713  1  0.83862000  0.08813000  0.58403000  1
  C  C714  1  0.27853000  0.49127000  0.13967000  1
  C  C715  1  0.35450000  0.44922000  0.06358000  1
  C  C716  1  0.25050000  0.02616000  0.16284000  1
  C  C717  1  0.91108000  0.92655000  0.49849000  1
  C  C718  1  0.81840000  0.68940000  0.59080000  1
  C  C719  1  0.71040000  0.30610000  0.69650000  1
  C  C720  1  0.13596000  0.97257000  0.26951000  1
  C  C721  1  0.23529000  0.26576000  0.16806000  1
  C  C722  1  0.94995000  0.47150000  0.45320000  1
  C  C723  1  0.19070000  0.45830000  0.21130000  1
  C  C724  1  0.22820000  0.22064000  0.17276000  1
  C  C725  1  0.02200000  0.44570000  0.37550000  1
  C  C726  1  0.76592000  0.62118000  0.62778000  1
  C  C727  1  0.48532000  0.96145000  0.90791000  1
  C  C728  1  0.99077000  0.28334000  0.40232000  1
  C  C729  1  0.80245000  0.04779000  0.58931000  1
  C  C730  1  0.62196000  0.47257000  0.76951000  1
  C  C731  1  0.19787000  0.99702000  0.19164000  1
  C  C732  1  0.63512000  0.90559000  0.75277000  1
  C  C733  1  0.38951000  0.30836000  0.99702000  1
  C  C734  1  0.79710000  0.64370000  0.58930000  1
  C  C735  1  0.59904000  0.67276000  0.77936000  1
  C  C736  1  0.40547000  0.23049000  0.97257000  1
  C  C737  1  0.11240000  0.11718000  0.26082000  1
  C  C738  1  0.55627000  0.64992000  0.81674000  1
  C  C739  1  0.74468000  0.58109000  0.62575000  1
  C  C740  1  0.69664000  0.47014000  0.67318000  1
  C  C741  1  0.06163000  0.12172000  0.30702000  1
  C  C742  1  0.68520000  0.17190000  0.68270000  1
  C  C743  1  0.95929000  0.24723000  0.40559000  1
  C  C744  1  0.88000000  0.88910000  0.48010000  1
  C  C745  1  0.33988000  0.09910000  0.01974000  1
  C  C746  1  0.81110000  0.62270000  0.54790000  1
  C  C747  1  0.53980000  0.32810000  0.81730000  1
  C  C748  1  0.49583000  0.35927000  0.85967000  1
  C  C749  1  0.71477000  0.14073000  0.64033000  1
  C  C750  1  0.39323000  0.59209000  0.96145000  1
  C  C751  1  0.30372000  0.06358000  0.05078000  1
  C  C752  1  0.10077000  0.94525000  0.25081000  1
  C  C753  1  0.43955000  0.45221000  0.91069000  1
  C  C754  1  0.89249000  0.44560000  0.45622000  1
  C  C755  1  0.96733000  0.41948000  0.37726000  1
  C  C756  1  0.93898000  0.01974000  0.40090000  1
  C  C757  1  0.79071000  0.58104000  0.54734000  1
  C  C758  1  0.33612000  0.57345000  0.00151000  1
  C  C759  1  0.40957000  0.00151000  0.92655000  1
  C  C760  1  0.16004000  0.97014000  0.17318000  1
  C  C761  1  0.59665000  0.66806000  0.73424000  1
  C  C762  1  0.60691000  0.90232000  0.71666000  1
  C  C763  1  0.82296000  0.45111000  0.49857000  1
  C  C764  1  0.90310000  0.41804000  0.41816000  1
  C  C765  1  0.50963000  0.62172000  0.80702000  1
  C  C766  1  0.57730000  0.49769000  0.73931000  1
  C  C767  1  0.11110000  0.94446000  0.20434000  1
  C  C768  1  0.64290000  0.31730000  0.67190000  1
  C  C769  1  0.50690000  0.91170000  0.80450000  1
  C  C770  1  0.08307000  0.13990000  0.22476000  1
  C  C771  1  0.61347000  0.49702000  0.69164000  1
  C  C772  1  0.46075000  0.59602000  0.84368000  1
  C  C773  1  0.86730000  0.05078000  0.43642000  1
  C  C774  1  0.33322000  0.32682000  0.97014000  1
  C  C775  1  0.35158000  0.24919000  0.94525000  1
  C  C776  1  0.97707000  0.14992000  0.31674000  1
  C  C777  1  0.38789000  0.74723000  0.90559000  1
  C  C778  1  0.48350000  0.30350000  0.80610000  1
  C  C779  1  0.59310000  0.19650000  0.69390000  1
  C  C780  1  0.84740000  0.90560000  0.43840000  1
  C  C781  1  0.64450000  0.35967000  0.64073000  1
  C  C782  1  0.26980000  0.13967000  0.00873000  1
  C  C783  1  0.55227000  0.63990000  0.72476000  1
  C  C784  1  0.50960000  0.61718000  0.76082000  1
  C  C785  1  0.90947000  0.00873000  0.36033000  1
  C  C786  1  0.24920000  0.61090000  0.01990000  1
  C  C787  1  0.21680000  0.16962000  0.05178000  1
  C  C788  1  0.67874000  0.91816000  0.58196000  1
  C  C789  1  0.31544000  0.29566000  0.94446000  1
  C  C790  1  0.17423000  0.37425000  0.08109000  1
  C  C791  1  0.19140000  0.59440000  0.06160000  1
  C  C792  1  0.77666000  0.16284000  0.47384000  1
  C  C793  1  0.36010000  0.01990000  0.88910000  1
  C  C794  1  0.52370000  0.90480000  0.72400000  1
  C  C795  1  0.47230000  0.90790000  0.76990000  1
  C  C796  1  0.65541000  0.87726000  0.58052000  1
  C  C797  1  0.00105000  0.16806000  0.23424000  1
  C  C798  1  0.11290000  0.37222000  0.12118000  1
  C  C799  1  0.80740000  0.87770000  0.42510000  1
  C  C800  1  0.94884000  0.17276000  0.27936000  1
  C  C801  1  0.67847000  0.99857000  0.54889000  1
  C  C802  1  0.22736000  0.95111000  0.99857000  1
  C  C803  1  0.32357000  0.78334000  0.90232000  1
  C  C804  1  0.56050000  0.52616000  0.66284000  1
  C  C805  1  0.31140000  0.69550000  0.91170000  1
  C  C806  1  0.88642000  0.05178000  0.33038000  1
  C  C807  1  0.81020000  0.62200000  0.40400000  1
  C  C808  1  0.12825000  0.45266000  0.08104000  1
  C  C809  1  0.65129000  0.95622000  0.55440000  1
  C  C810  1  0.05920000  0.41070000  0.14370000  1
  C  C811  1  0.69489000  0.19164000  0.50298000  1
  C  C812  1  0.64976000  0.41069000  0.54779000  1
  C  C813  1  0.81490000  0.57490000  0.37770000  1
  C  C814  1  0.57534000  0.37164000  0.61628000  1
  C  C815  1  0.28580000  0.06160000  0.90560000  1
  C  C816  1  0.14900000  0.21130000  0.04170000  1
  C  C817  1  0.06780000  0.59600000  0.12200000  1
  C  C818  1  0.06620000  0.45210000  0.12270000  1
  C  C819  1  0.10400000  0.24150000  0.08190000  1
  C  C820  1  0.68339000  0.23931000  0.50231000  1
  C  C821  1  0.11020000  0.62230000  0.07490000  1
  C  C822  1  0.99220000  0.40920000  0.18940000  1
  C  C823  1  0.26070000  0.91804000  0.91816000  1
  C  C824  1  0.22593000  0.50143000  0.95111000  1
  C  C825  1  0.04848000  0.08109000  0.12575000  1
  C  C826  1  0.48640000  0.90410000  0.68290000  1
  C  C827  1  0.78580000  0.90400000  0.37800000  1
  C  C828  1  0.20569000  0.94560000  0.95622000  1
  C  C829  1  0.57325000  0.41597000  0.58813000  1
  C  C830  1  0.63018000  0.17318000  0.52986000  1
  C  C831  1  0.60250000  0.87550000  0.55430000  1
  C  C832  1  0.57260000  0.74150000  0.58190000  1
  C  C833  1  0.74700000  0.56160000  0.40560000  1
  C  C834  1  0.24770000  0.77600000  0.90480000  1
  C  C835  1  0.24220000  0.73010000  0.90790000  1
  C  C836  1  0.86030000  0.04170000  0.28870000  1
  C  C837  1  0.59800000  0.71130000  0.54170000  1
  C  C838  1  0.60853000  0.26951000  0.52743000  1
  C  C839  1  0.58192000  0.56358000  0.55078000  1
  C  C840  1  0.08091000  0.08104000  0.04734000  1
  C  C841  1  0.59685000  0.95320000  0.52850000  1
  C  C842  1  0.73090000  0.51990000  0.38910000  1
  C  C843  1  0.84990000  0.40790000  0.26990000  1
  C  C844  1  0.56180000  0.66962000  0.55178000  1
  C  C845  1  0.23593000  0.91948000  0.87726000  1
  C  C846  1  0.98512000  0.12118000  0.12778000  1
  C  C847  1  0.72958000  0.26082000  0.38282000  1
  C  C848  1  0.55556000  0.20434000  0.55554000  1
  C  C849  1  0.23250000  0.07490000  0.87770000  1
  C  C850  1  0.92660000  0.40410000  0.18290000  1
  C  C851  1  0.16191000  0.54378000  0.94560000  1
  C  C852  1  0.84550000  0.08190000  0.25850000  1
  C  C853  1  0.57180000  0.91320000  0.52980000  1
  C  C854  1  0.54602000  0.25081000  0.55475000  1
  C  C855  1  0.69557000  0.34368000  0.40398000  1
  C  C856  1  0.40920000  0.90920000  0.68940000  1
  C  C857  1  0.17886000  0.58184000  0.91804000  1
  C  C858  1  0.58180000  0.63967000  0.50873000  1
  C  C859  1  0.66237000  0.50151000  0.42655000  1
  C  C860  1  0.72297000  0.22476000  0.36010000  1
  C  C861  1  0.77690000  0.41170000  0.30450000  1
  C  C862  1  0.66195000  0.04734000  0.41896000  1
  C  C863  1  0.12535000  0.97150000  0.95320000  1
  C  C864  1  0.16930000  0.81710000  0.90410000  1
  C  C865  1  0.84750000  0.40480000  0.22400000  1
  C  C866  1  0.16380000  0.12200000  0.90400000  1
  C  C867  1  0.01830000  0.12270000  0.04790000  1
  C  C868  1  0.68335000  0.30702000  0.37828000  1
  C  C869  1  0.54128000  0.59910000  0.51974000  1
  C  C870  1  0.96990000  0.14370000  0.08930000  1
  C  C871  1  0.64532000  0.46145000  0.40791000  1
  C  C872  1  0.37840000  0.72064000  0.67276000  1
  C  C873  1  0.07855000  0.54680000  0.97150000  1
  C  C874  1  0.62957000  0.12575000  0.41891000  1
  C  C875  1  0.29348000  0.59441000  0.74723000  1
  C  C876  1  0.11319000  0.62274000  0.91948000  1
  C  C877  1  0.15680000  0.94570000  0.87550000  1
  C  C878  1  0.38640000  0.91070000  0.64370000  1
  C  C879  1  0.37301000  0.68326000  0.64992000  1
  C  C880  1  0.96770000  0.37550000  0.05430000  1
  C  C881  1  0.64100000  0.04790000  0.37730000  1
  C  C882  1  0.98520000  0.41320000  0.02980000  1
  C  C883  1  0.39370000  0.87222000  0.62118000  1
  C  C884  1  0.10160000  0.97020000  0.91320000  1
  C  C885  1  0.22589000  0.59768000  0.78334000  1
  C  C886  1  0.09860000  0.81060000  0.90920000  1
  C  C887  1  0.66911000  0.23424000  0.33194000  1
  N  N888  1  0.29600000  0.59001000  0.70339000  1
  N  N889  1  0.34562000  0.61253000  0.60143000  1
  N  N890  1  0.32603000  0.58000000  0.57774000  1
  N  N891  1  0.34247000  0.91446000  0.56060000  1
  N  N892  1  0.45729000  0.43865000  0.40557000  1
  N  N893  1  0.90307000  0.93940000  0.91446000  1
  N  N894  1  0.40333000  0.47117000  0.38237000  1
  N  N895  1  0.69397000  0.50234000  0.07232000  1
  N  N896  1  0.81753000  0.58554000  0.93940000  1
  N  N897  1  0.30077000  0.56224000  0.45582000  1
  N  N898  1  0.21430000  0.88237000  0.52883000  1
  N  N899  1  0.23371000  0.57232000  0.49766000  1
  N  N900  1  0.61399000  0.29661000  0.09001000  1
  N  N901  1  0.63699000  0.54418000  0.06224000  1
  N  N902  1  0.13714000  0.90557000  0.56135000  1
  N  N903  1  0.26863000  0.99766000  0.42768000  1
  N  N904  1  0.69631000  0.07232000  0.99766000  1
  N  N905  1  0.24341000  0.95582000  0.43776000  1
  N  N906  1  0.59397000  0.42226000  0.08000000  1
  N  N907  1  0.24307000  0.43940000  0.41446000  1
  N  N908  1  0.54185000  0.39857000  0.11253000  1
  N  N909  1  0.68117000  0.06224000  0.95582000  1
  N  N910  1  0.74313000  0.97117000  0.88237000  1
  N  N911  1  0.41060000  0.09001000  0.20339000  1
  N  N912  1  0.69849000  0.93865000  0.90557000  1
  N  N913  1  0.62550000  0.61763000  0.97117000  1
  N  N914  1  0.51623000  0.08000000  0.07774000  1
  N  N915  1  0.99939000  0.79661000  0.59001000  1
  N  N916  1  0.94705000  0.89857000  0.61253000  1
  N  N917  1  0.60406000  0.59443000  0.93865000  1
  N  N918  1  0.44042000  0.11253000  0.10143000  1
  N  N919  1  0.09623000  0.07774000  0.42000000  1
  N  N920  1  0.90377000  0.92226000  0.58000000  1
  N  N921  1  0.55958000  0.88747000  0.89857000  1
  N  N922  1  0.39594000  0.40557000  0.06135000  1
  N  N923  1  0.05295000  0.10143000  0.38747000  1
  N  N924  1  0.00061000  0.20339000  0.40999000  1
  N  N925  1  0.48377000  0.92000000  0.92226000  1
  N  N926  1  0.37450000  0.38237000  0.02883000  1
  N  N927  1  0.30151000  0.06135000  0.09443000  1
  N  N928  1  0.58940000  0.90999000  0.79661000  1
  N  N929  1  0.25687000  0.02883000  0.11763000  1
  N  N930  1  0.31883000  0.93776000  0.04418000  1
  N  N931  1  0.45815000  0.60143000  0.88747000  1
  N  N932  1  0.75693000  0.56060000  0.58554000  1
  N  N933  1  0.40603000  0.57774000  0.92000000  1
  N  N934  1  0.75659000  0.04418000  0.56224000  1
  N  N935  1  0.30369000  0.92768000  0.00234000  1
  N  N936  1  0.73137000  0.00234000  0.57232000  1
  N  N937  1  0.86286000  0.09443000  0.43865000  1
  N  N938  1  0.36301000  0.45582000  0.93776000  1
  N  N939  1  0.38601000  0.70339000  0.90999000  1
  N  N940  1  0.76629000  0.42768000  0.50234000  1
  N  N941  1  0.78570000  0.11763000  0.47117000  1
  N  N942  1  0.69923000  0.43776000  0.54418000  1
  N  N943  1  0.18247000  0.41446000  0.06060000  1
  N  N944  1  0.30603000  0.49766000  0.92768000  1
  N  N945  1  0.59667000  0.52883000  0.61763000  1
  N  N946  1  0.09693000  0.06060000  0.08554000  1
  N  N947  1  0.54271000  0.56135000  0.59443000  1
  N  N948  1  0.65753000  0.08554000  0.43940000  1
  N  N949  1  0.67397000  0.42000000  0.42226000  1
  N  N950  1  0.65438000  0.38747000  0.39857000  1
  N  N951  1  0.70400000  0.40999000  0.29661000  1
  O  O952  1  0.60456000  0.47108000  0.37700000  1
  O  O953  1  0.57930000  0.35836000  0.34304000  1
  O  O954  1  0.74442000  0.41804000  0.10932000  1
  O  O955  1  0.36703000  0.87151000  0.46723000  1
  O  O956  1  0.51568000  0.45182000  0.31710000  1
  O  O957  1  0.34777000  0.96966000  0.47792000  1
  O  O958  1  0.25390000  0.66806000  0.57014000  1
  O  O959  1  0.33504000  0.62064000  0.48308000  1
  O  O960  1  0.79535000  0.53034000  0.02208000  1
  O  O961  1  0.34254000  0.46172000  0.46744000  1
  O  O962  1  0.82569000  0.02208000  0.96966000  1
  O  O963  1  0.57804000  0.42986000  0.16806000  1
  O  O964  1  0.66246000  0.10932000  0.08196000  1
  O  O965  1  0.70577000  0.62849000  0.03277000  1
  O  O966  1  0.19002000  0.96744000  0.53828000  1
  O  O967  1  0.14626000  0.60932000  0.58196000  1
  O  O968  1  0.07766000  0.84304000  0.64164000  1
  O  O969  1  0.16722000  0.81710000  0.54818000  1
  O  O970  1  0.83426000  0.03277000  0.87151000  1
  O  O971  1  0.72830000  0.96172000  0.96744000  1
  O  O972  1  0.54432000  0.51692000  0.12064000  1
  O  O973  1  0.27178000  0.08196000  0.39068000  1
  O  O974  1  0.69574000  0.53256000  0.96172000  1
  O  O975  1  0.18257000  0.52208000  0.46966000  1
  O  O976  1  0.26146000  0.53277000  0.37151000  1
  O  O977  1  0.57564000  0.37700000  0.02892000  1
  O  O978  1  0.43766000  0.34304000  0.14164000  1
  O  O979  1  0.50790000  0.16806000  0.07014000  1
  O  O980  1  0.45264000  0.02892000  0.12300000  1
  O  O981  1  0.71930000  0.85836000  0.84304000  1
  O  O982  1  0.18188000  0.98308000  0.37936000  1
  O  O983  1  0.01844000  0.87700000  0.52892000  1
  O  O984  1  0.56124000  0.12064000  0.98308000  1
  O  O985  1  0.71540000  0.95182000  0.81710000  1
  O  O986  1  0.46750000  0.31710000  0.04818000  1
  O  O987  1  0.17596000  0.07014000  0.33194000  1
  O  O988  1  0.82404000  0.92986000  0.66806000  1
  O  O989  1  0.53250000  0.68290000  0.95182000  1
  O  O990  1  0.28460000  0.04818000  0.18290000  1
  O  O991  1  0.43876000  0.87936000  0.01692000  1
  O  O992  1  0.98156000  0.12300000  0.47108000  1
  O  O993  1  0.81812000  0.01692000  0.62064000  1
  O  O994  1  0.28070000  0.14164000  0.15696000  1
  O  O995  1  0.54736000  0.97108000  0.87700000  1
  O  O996  1  0.49210000  0.83194000  0.92986000  1
  O  O997  1  0.56234000  0.65696000  0.85836000  1
  O  O998  1  0.42436000  0.62300000  0.97108000  1
  O  O999  1  0.73854000  0.46723000  0.62849000  1
  O  O1000  1  0.81743000  0.47792000  0.53034000  1
  O  O1001  1  0.30426000  0.46744000  0.03828000  1
  O  O1002  1  0.72822000  0.91804000  0.60932000  1
  O  O1003  1  0.45568000  0.48308000  0.87936000  1
  O  O1004  1  0.27170000  0.03828000  0.03256000  1
  O  O1005  1  0.16574000  0.96723000  0.12849000  1
  O  O1006  1  0.83278000  0.18290000  0.45182000  1
  O  O1007  1  0.92234000  0.15696000  0.35836000  1
  O  O1008  1  0.85374000  0.39068000  0.41804000  1
  O  O1009  1  0.80998000  0.03256000  0.46172000  1
  O  O1010  1  0.29423000  0.37151000  0.96723000  1
  O  O1011  1  0.33754000  0.89068000  0.91804000  1
  O  O1012  1  0.42196000  0.57014000  0.83194000  1
  O  O1013  1  0.17431000  0.97792000  0.03034000  1
  O  O1014  1  0.65746000  0.53828000  0.53256000  1
  O  O1015  1  0.20465000  0.46966000  0.97792000  1
  O  O1016  1  0.66496000  0.37936000  0.51692000  1
  O  O1017  1  0.74610000  0.33194000  0.42986000  1
  O  O1018  1  0.65223000  0.03034000  0.52208000  1
  O  O1019  1  0.48432000  0.54818000  0.68290000  1
  O  O1020  1  0.63297000  0.12849000  0.53277000  1
  O  O1021  1  0.25558000  0.58196000  0.89068000  1
  O  O1022  1  0.42070000  0.64164000  0.65696000  1
  O  O1023  1  0.39544000  0.52892000  0.62300000  1
