# generated using pymatgen
data_Cd4H16C24N20Cl3
_symmetry_space_group_name_H-M   'P 1'
_cell_length_a   20.86160000
_cell_length_b   22.20380000
_cell_length_c   35.59330000
_cell_angle_alpha   90.00000000
_cell_angle_beta   90.00000000
_cell_angle_gamma   90.00000000
_symmetry_Int_Tables_number   1
_chemical_formula_structural   Cd4H16C24N20Cl3
_chemical_formula_sum   'Cd32 H128 C192 N160 Cl24'
_cell_volume   16487.05838373
_cell_formula_units_Z   8
loop_
 _symmetry_equiv_pos_site_id
 _symmetry_equiv_pos_as_xyz
  1  'x, y, z'
loop_
 _atom_site_type_symbol
 _atom_site_label
 _atom_site_symmetry_multiplicity
 _atom_site_fract_x
 _atom_site_fract_y
 _atom_site_fract_z
 _atom_site_occupancy
  Cd  Cd0  1  0.90466000  0.63419000  0.58200000  1
  Cd  Cd1  1  0.90466000  0.86581000  0.41800000  1
  Cd  Cd2  1  0.85614000  0.24286000  0.83475000  1
  Cd  Cd3  1  0.85614000  0.25714000  0.16525000  1
  Cd  Cd4  1  0.84850000  0.36657000  0.90806000  1
  Cd  Cd5  1  0.84850000  0.13343000  0.09194000  1
  Cd  Cd6  1  0.76923000  0.61816000  0.65650000  1
  Cd  Cd7  1  0.76923000  0.88184000  0.34350000  1
  Cd  Cd8  1  0.73077000  0.11816000  0.84350000  1
  Cd  Cd9  1  0.73077000  0.38184000  0.15650000  1
  Cd  Cd10  1  0.65150000  0.86657000  0.59194000  1
  Cd  Cd11  1  0.65150000  0.63343000  0.40806000  1
  Cd  Cd12  1  0.64386000  0.74286000  0.66525000  1
  Cd  Cd13  1  0.64386000  0.75714000  0.33475000  1
  Cd  Cd14  1  0.59534000  0.13419000  0.91800000  1
  Cd  Cd15  1  0.59534000  0.36581000  0.08200000  1
  Cd  Cd16  1  0.40466000  0.63419000  0.91800000  1
  Cd  Cd17  1  0.40466000  0.86581000  0.08200000  1
  Cd  Cd18  1  0.35614000  0.24286000  0.66525000  1
  Cd  Cd19  1  0.35614000  0.25714000  0.33475000  1
  Cd  Cd20  1  0.34850000  0.36657000  0.59194000  1
  Cd  Cd21  1  0.34850000  0.13343000  0.40806000  1
  Cd  Cd22  1  0.26923000  0.61816000  0.84350000  1
  Cd  Cd23  1  0.26923000  0.88184000  0.15650000  1
  Cd  Cd24  1  0.23077000  0.11816000  0.65650000  1
  Cd  Cd25  1  0.23077000  0.38184000  0.34350000  1
  Cd  Cd26  1  0.15150000  0.86657000  0.90806000  1
  Cd  Cd27  1  0.15150000  0.63343000  0.09194000  1
  Cd  Cd28  1  0.14386000  0.74286000  0.83475000  1
  Cd  Cd29  1  0.14386000  0.75714000  0.16525000  1
  Cd  Cd30  1  0.09534000  0.13419000  0.58200000  1
  Cd  Cd31  1  0.09534000  0.36581000  0.41800000  1
  H  H32  1  0.99760000  0.88560000  0.91200000  1
  H  H33  1  0.99760000  0.61440000  0.08800000  1
  H  H34  1  0.99490000  0.20320000  0.81850000  1
  H  H35  1  0.99490000  0.29680000  0.18150000  1
  H  H36  1  0.95270000  0.83060000  0.50120000  1
  H  H37  1  0.95270000  0.66940000  0.49880000  1
  H  H38  1  0.94790000  0.57930000  0.87430000  1
  H  H39  1  0.94790000  0.92070000  0.12570000  1
  H  H40  1  0.93410000  0.67490000  0.77000000  1
  H  H41  1  0.93410000  0.82510000  0.23000000  1
  H  H42  1  0.93400000  0.23790000  0.69600000  1
  H  H43  1  0.93400000  0.26210000  0.30400000  1
  H  H44  1  0.91580000  0.95480000  0.90020000  1
  H  H45  1  0.91580000  0.54520000  0.09980000  1
  H  H46  1  0.91300000  0.78600000  0.55420000  1
  H  H47  1  0.91300000  0.71400000  0.44580000  1
  H  H48  1  0.87260000  0.26970000  0.74640000  1
  H  H49  1  0.87260000  0.23030000  0.25360000  1
  H  H50  1  0.87050000  0.50790000  0.89360000  1
  H  H51  1  0.87050000  0.99210000  0.10640000  1
  H  H52  1  0.82210000  0.54060000  0.79040000  1
  H  H53  1  0.82210000  0.95940000  0.20960000  1
  H  H54  1  0.79750000  0.60520000  0.74000000  1
  H  H55  1  0.79750000  0.89480000  0.26000000  1
  H  H56  1  0.78070000  0.62500000  0.53360000  1
  H  H57  1  0.78070000  0.87500000  0.46640000  1
  H  H58  1  0.76730000  0.40200000  0.71990000  1
  H  H59  1  0.76730000  0.09800000  0.28010000  1
  H  H60  1  0.76520000  0.33333333  0.98090000  1
  H  H61  1  0.76520000  0.16660000  0.01910000  1
  H  H62  1  0.75340000  0.47400000  0.67330000  1
  H  H63  1  0.75340000  0.02600000  0.32670000  1
  H  H64  1  0.74660000  0.97400000  0.82670000  1
  H  H65  1  0.74660000  0.52600000  0.17330000  1
  H  H66  1  0.73480000  0.83340000  0.51910000  1
  H  H67  1  0.73480000  0.66660000  0.48090000  1
  H  H68  1  0.73270000  0.90200000  0.78010000  1
  H  H69  1  0.73270000  0.59800000  0.21990000  1
  H  H70  1  0.71930000  0.12500000  0.96640000  1
  H  H71  1  0.71930000  0.37500000  0.03360000  1
  H  H72  1  0.70250000  0.10520000  0.76000000  1
  H  H73  1  0.70250000  0.39480000  0.24000000  1
  H  H74  1  0.67790000  0.04060000  0.70960000  1
  H  H75  1  0.67790000  0.45940000  0.29040000  1
  H  H76  1  0.62950000  0.00790000  0.60640000  1
  H  H77  1  0.62950000  0.49210000  0.39360000  1
  H  H78  1  0.62740000  0.76970000  0.75360000  1
  H  H79  1  0.62740000  0.73030000  0.24640000  1
  H  H80  1  0.58700000  0.28600000  0.94580000  1
  H  H81  1  0.58700000  0.21400000  0.05420000  1
  H  H82  1  0.58420000  0.45480000  0.59980000  1
  H  H83  1  0.58420000  0.04520000  0.40020000  1
  H  H84  1  0.56600000  0.73790000  0.80400000  1
  H  H85  1  0.56600000  0.76210000  0.19600000  1
  H  H86  1  0.56590000  0.17490000  0.73000000  1
  H  H87  1  0.56590000  0.32510000  0.27000000  1
  H  H88  1  0.55210000  0.07930000  0.62570000  1
  H  H89  1  0.55210000  0.42070000  0.37430000  1
  H  H90  1  0.54730000  0.33060000  0.99880000  1
  H  H91  1  0.54730000  0.16940000  0.00120000  1
  H  H92  1  0.50510000  0.70320000  0.68150000  1
  H  H93  1  0.50510000  0.79680000  0.31850000  1
  H  H94  1  0.50240000  0.38560000  0.58800000  1
  H  H95  1  0.50240000  0.11440000  0.41200000  1
  H  H96  1  0.49760000  0.88560000  0.58800000  1
  H  H97  1  0.49760000  0.61440000  0.41200000  1
  H  H98  1  0.49490000  0.20320000  0.68150000  1
  H  H99  1  0.49490000  0.29680000  0.31850000  1
  H  H100  1  0.45270000  0.83060000  0.99880000  1
  H  H101  1  0.45270000  0.66940000  0.00120000  1
  H  H102  1  0.44790000  0.57930000  0.62570000  1
  H  H103  1  0.44790000  0.92070000  0.37430000  1
  H  H104  1  0.43410000  0.67490000  0.73000000  1
  H  H105  1  0.43410000  0.82510000  0.27000000  1
  H  H106  1  0.43400000  0.23790000  0.80400000  1
  H  H107  1  0.43400000  0.26210000  0.19600000  1
  H  H108  1  0.41580000  0.95480000  0.59980000  1
  H  H109  1  0.41580000  0.54520000  0.40020000  1
  H  H110  1  0.41300000  0.78600000  0.94580000  1
  H  H111  1  0.41300000  0.71400000  0.05420000  1
  H  H112  1  0.37260000  0.26970000  0.75360000  1
  H  H113  1  0.37260000  0.23030000  0.24640000  1
  H  H114  1  0.37050000  0.50790000  0.60640000  1
  H  H115  1  0.37050000  0.99210000  0.39360000  1
  H  H116  1  0.32210000  0.54060000  0.70960000  1
  H  H117  1  0.32210000  0.95940000  0.29040000  1
  H  H118  1  0.29750000  0.60520000  0.76000000  1
  H  H119  1  0.29750000  0.89480000  0.24000000  1
  H  H120  1  0.28070000  0.62500000  0.96640000  1
  H  H121  1  0.28070000  0.87500000  0.03360000  1
  H  H122  1  0.26730000  0.40200000  0.78010000  1
  H  H123  1  0.26730000  0.09800000  0.21990000  1
  H  H124  1  0.26520000  0.33333333  0.51910000  1
  H  H125  1  0.26520000  0.16660000  0.48090000  1
  H  H126  1  0.25340000  0.47400000  0.82670000  1
  H  H127  1  0.25340000  0.02600000  0.17330000  1
  H  H128  1  0.24660000  0.97400000  0.67330000  1
  H  H129  1  0.24660000  0.52600000  0.32670000  1
  H  H130  1  0.23480000  0.83340000  0.98090000  1
  H  H131  1  0.23480000  0.66660000  0.01910000  1
  H  H132  1  0.23270000  0.90200000  0.71990000  1
  H  H133  1  0.23270000  0.59800000  0.28010000  1
  H  H134  1  0.21930000  0.12500000  0.53360000  1
  H  H135  1  0.21930000  0.37500000  0.46640000  1
  H  H136  1  0.20250000  0.10520000  0.74000000  1
  H  H137  1  0.20250000  0.39480000  0.26000000  1
  H  H138  1  0.17790000  0.04060000  0.79040000  1
  H  H139  1  0.17790000  0.45940000  0.20960000  1
  H  H140  1  0.12950000  0.00790000  0.89360000  1
  H  H141  1  0.12950000  0.49210000  0.10640000  1
  H  H142  1  0.12740000  0.76970000  0.74640000  1
  H  H143  1  0.12740000  0.73030000  0.25360000  1
  H  H144  1  0.08700000  0.28600000  0.55420000  1
  H  H145  1  0.08700000  0.21400000  0.44580000  1
  H  H146  1  0.08420000  0.45480000  0.90020000  1
  H  H147  1  0.08420000  0.04520000  0.09980000  1
  H  H148  1  0.06600000  0.73790000  0.69600000  1
  H  H149  1  0.06600000  0.76210000  0.30400000  1
  H  H150  1  0.06590000  0.17490000  0.77000000  1
  H  H151  1  0.06590000  0.32510000  0.23000000  1
  H  H152  1  0.05210000  0.07930000  0.87430000  1
  H  H153  1  0.05210000  0.42070000  0.12570000  1
  H  H154  1  0.04730000  0.33060000  0.50120000  1
  H  H155  1  0.04730000  0.16940000  0.49880000  1
  H  H156  1  0.00510000  0.70320000  0.81850000  1
  H  H157  1  0.00510000  0.79680000  0.18150000  1
  H  H158  1  0.00240000  0.38560000  0.91200000  1
  H  H159  1  0.00240000  0.11440000  0.08800000  1
  C  C160  1  0.99290000  0.70150000  0.72710000  1
  C  C161  1  0.99290000  0.79850000  0.27290000  1
  C  C162  1  0.99140000  0.42570000  0.90530000  1
  C  C163  1  0.99140000  0.07430000  0.09470000  1
  C  C164  1  0.98280000  0.21110000  0.79330000  1
  C  C165  1  0.98280000  0.28890000  0.20670000  1
  C  C166  1  0.97700000  0.02250000  0.88540000  1
  C  C167  1  0.97700000  0.47750000  0.11460000  1
  C  C168  1  0.97430000  0.69270000  0.76420000  1
  C  C169  1  0.97430000  0.80730000  0.23580000  1
  C  C170  1  0.95990000  0.54030000  0.88280000  1
  C  C171  1  0.95990000  0.95970000  0.11720000  1
  C  C172  1  0.95950000  0.96590000  0.89740000  1
  C  C173  1  0.95950000  0.53410000  0.10260000  1
  C  C174  1  0.95450000  0.68040000  0.69660000  1
  C  C175  1  0.95450000  0.81960000  0.30340000  1
  C  C176  1  0.94840000  0.23060000  0.72090000  1
  C  C177  1  0.94840000  0.26940000  0.27910000  1
  C  C178  1  0.92600000  0.06660000  0.87420000  1
  C  C179  1  0.92600000  0.43340000  0.12580000  1
  C  C180  1  0.91450000  0.49690000  0.89360000  1
  C  C181  1  0.91450000  0.00310000  0.10640000  1
  C  C182  1  0.91150000  0.24870000  0.75120000  1
  C  C183  1  0.91150000  0.25130000  0.24880000  1
  C  C184  1  0.90750000  0.82970000  0.50470000  1
  C  C185  1  0.90750000  0.67030000  0.49530000  1
  C  C186  1  0.88450000  0.80350000  0.53650000  1
  C  C187  1  0.88450000  0.69650000  0.46350000  1
  C  C188  1  0.81870000  0.80280000  0.54270000  1
  C  C189  1  0.81870000  0.69720000  0.45730000  1
  C  C190  1  0.80730000  0.64410000  0.51550000  1
  C  C191  1  0.80730000  0.85590000  0.48450000  1
  C  C192  1  0.80570000  0.52560000  0.76730000  1
  C  C193  1  0.80570000  0.97440000  0.23270000  1
  C  C194  1  0.80200000  0.42030000  0.79210000  1
  C  C195  1  0.80200000  0.07970000  0.20790000  1
  C  C196  1  0.79260000  0.56310000  0.73640000  1
  C  C197  1  0.79260000  0.93690000  0.26360000  1
  C  C198  1  0.79220000  0.46230000  0.76130000  1
  C  C199  1  0.79220000  0.03770000  0.23870000  1
  C  C200  1  0.78990000  0.77080000  0.57360000  1
  C  C201  1  0.78990000  0.72920000  0.42640000  1
  C  C202  1  0.77990000  0.83140000  0.51560000  1
  C  C203  1  0.77990000  0.66860000  0.48440000  1
  C  C204  1  0.77390000  0.44350000  0.72530000  1
  C  C205  1  0.77390000  0.05650000  0.27470000  1
  C  C206  1  0.76590000  0.48690000  0.69770000  1
  C  C207  1  0.76590000  0.01310000  0.30230000  1
  C  C208  1  0.73410000  0.98690000  0.80230000  1
  C  C209  1  0.73410000  0.51310000  0.19770000  1
  C  C210  1  0.72610000  0.94350000  0.77470000  1
  C  C211  1  0.72610000  0.55650000  0.22530000  1
  C  C212  1  0.72010000  0.33140000  0.98440000  1
  C  C213  1  0.72010000  0.16860000  0.01560000  1
  C  C214  1  0.71010000  0.27080000  0.92640000  1
  C  C215  1  0.71010000  0.22920000  0.07360000  1
  C  C216  1  0.70780000  0.96230000  0.73870000  1
  C  C217  1  0.70780000  0.53770000  0.26130000  1
  C  C218  1  0.70740000  0.06310000  0.76360000  1
  C  C219  1  0.70740000  0.43690000  0.23640000  1
  C  C220  1  0.69800000  0.92030000  0.70790000  1
  C  C221  1  0.69800000  0.57970000  0.29210000  1
  C  C222  1  0.69430000  0.02560000  0.73270000  1
  C  C223  1  0.69430000  0.47440000  0.26730000  1
  C  C224  1  0.69270000  0.14410000  0.98450000  1
  C  C225  1  0.69270000  0.35590000  0.01550000  1
  C  C226  1  0.68130000  0.30280000  0.95730000  1
  C  C227  1  0.68130000  0.19720000  0.04270000  1
  C  C228  1  0.61550000  0.30350000  0.96350000  1
  C  C229  1  0.61550000  0.19650000  0.03650000  1
  C  C230  1  0.59250000  0.32970000  0.99530000  1
  C  C231  1  0.59250000  0.17030000  0.00470000  1
  C  C232  1  0.58850000  0.74870000  0.74880000  1
  C  C233  1  0.58850000  0.75130000  0.25120000  1
  C  C234  1  0.58550000  0.99690000  0.60640000  1
  C  C235  1  0.58550000  0.50310000  0.39360000  1
  C  C236  1  0.57400000  0.56660000  0.62580000  1
  C  C237  1  0.57400000  0.93340000  0.37420000  1
  C  C238  1  0.55160000  0.73060000  0.77910000  1
  C  C239  1  0.55160000  0.76940000  0.22090000  1
  C  C240  1  0.54550000  0.18040000  0.80340000  1
  C  C241  1  0.54550000  0.31960000  0.19660000  1
  C  C242  1  0.54050000  0.46590000  0.60260000  1
  C  C243  1  0.54050000  0.03410000  0.39740000  1
  C  C244  1  0.54010000  0.04030000  0.61720000  1
  C  C245  1  0.54010000  0.45970000  0.38280000  1
  C  C246  1  0.52570000  0.19270000  0.73580000  1
  C  C247  1  0.52570000  0.30730000  0.26420000  1
  C  C248  1  0.52300000  0.52250000  0.61460000  1
  C  C249  1  0.52300000  0.97750000  0.38540000  1
  C  C250  1  0.51720000  0.71110000  0.70670000  1
  C  C251  1  0.51720000  0.78890000  0.29330000  1
  C  C252  1  0.50860000  0.92570000  0.59470000  1
  C  C253  1  0.50860000  0.57430000  0.40530000  1
  C  C254  1  0.50710000  0.20150000  0.77290000  1
  C  C255  1  0.50710000  0.29850000  0.22710000  1
  C  C256  1  0.49290000  0.70150000  0.77290000  1
  C  C257  1  0.49290000  0.79850000  0.22710000  1
  C  C258  1  0.49140000  0.42570000  0.59470000  1
  C  C259  1  0.49140000  0.07430000  0.40530000  1
  C  C260  1  0.48280000  0.21110000  0.70670000  1
  C  C261  1  0.48280000  0.28890000  0.29330000  1
  C  C262  1  0.47700000  0.02250000  0.61460000  1
  C  C263  1  0.47700000  0.47750000  0.38540000  1
  C  C264  1  0.47430000  0.69270000  0.73580000  1
  C  C265  1  0.47430000  0.80730000  0.26420000  1
  C  C266  1  0.45990000  0.54030000  0.61720000  1
  C  C267  1  0.45990000  0.95970000  0.38280000  1
  C  C268  1  0.45950000  0.96590000  0.60260000  1
  C  C269  1  0.45950000  0.53410000  0.39740000  1
  C  C270  1  0.45450000  0.68040000  0.80340000  1
  C  C271  1  0.45450000  0.81960000  0.19660000  1
  C  C272  1  0.44840000  0.23060000  0.77910000  1
  C  C273  1  0.44840000  0.26940000  0.22090000  1
  C  C274  1  0.42600000  0.06660000  0.62580000  1
  C  C275  1  0.42600000  0.43340000  0.37420000  1
  C  C276  1  0.41450000  0.49690000  0.60640000  1
  C  C277  1  0.41450000  0.00310000  0.39360000  1
  C  C278  1  0.41150000  0.24870000  0.74880000  1
  C  C279  1  0.41150000  0.25130000  0.25120000  1
  C  C280  1  0.40750000  0.82970000  0.99530000  1
  C  C281  1  0.40750000  0.67030000  0.00470000  1
  C  C282  1  0.38450000  0.80350000  0.96350000  1
  C  C283  1  0.38450000  0.69650000  0.03650000  1
  C  C284  1  0.31870000  0.80280000  0.95730000  1
  C  C285  1  0.31870000  0.69720000  0.04270000  1
  C  C286  1  0.30730000  0.64410000  0.98450000  1
  C  C287  1  0.30730000  0.85590000  0.01550000  1
  C  C288  1  0.30570000  0.52560000  0.73270000  1
  C  C289  1  0.30570000  0.97440000  0.26730000  1
  C  C290  1  0.30200000  0.42030000  0.70790000  1
  C  C291  1  0.30200000  0.07970000  0.29210000  1
  C  C292  1  0.29260000  0.56310000  0.76360000  1
  C  C293  1  0.29260000  0.93690000  0.23640000  1
  C  C294  1  0.29220000  0.46230000  0.73870000  1
  C  C295  1  0.29220000  0.03770000  0.26130000  1
  C  C296  1  0.28990000  0.77080000  0.92640000  1
  C  C297  1  0.28990000  0.72920000  0.07360000  1
  C  C298  1  0.27990000  0.83140000  0.98440000  1
  C  C299  1  0.27990000  0.66860000  0.01560000  1
  C  C300  1  0.27390000  0.44350000  0.77470000  1
  C  C301  1  0.27390000  0.05650000  0.22530000  1
  C  C302  1  0.26590000  0.48690000  0.80230000  1
  C  C303  1  0.26590000  0.01310000  0.19770000  1
  C  C304  1  0.23410000  0.98690000  0.69770000  1
  C  C305  1  0.23410000  0.51310000  0.30230000  1
  C  C306  1  0.22610000  0.94350000  0.72530000  1
  C  C307  1  0.22610000  0.55650000  0.27470000  1
  C  C308  1  0.22010000  0.33140000  0.51560000  1
  C  C309  1  0.22010000  0.16860000  0.48440000  1
  C  C310  1  0.21010000  0.27080000  0.57360000  1
  C  C311  1  0.21010000  0.22920000  0.42640000  1
  C  C312  1  0.20780000  0.96230000  0.76130000  1
  C  C313  1  0.20780000  0.53770000  0.23870000  1
  C  C314  1  0.20740000  0.06310000  0.73640000  1
  C  C315  1  0.20740000  0.43690000  0.26360000  1
  C  C316  1  0.19800000  0.92030000  0.79210000  1
  C  C317  1  0.19800000  0.57970000  0.20790000  1
  C  C318  1  0.19430000  0.02560000  0.76730000  1
  C  C319  1  0.19430000  0.47440000  0.23270000  1
  C  C320  1  0.19270000  0.14410000  0.51550000  1
  C  C321  1  0.19270000  0.35590000  0.48450000  1
  C  C322  1  0.18130000  0.30280000  0.54270000  1
  C  C323  1  0.18130000  0.19720000  0.45730000  1
  C  C324  1  0.11550000  0.30350000  0.53650000  1
  C  C325  1  0.11550000  0.19650000  0.46350000  1
  C  C326  1  0.09250000  0.32970000  0.50470000  1
  C  C327  1  0.09250000  0.17030000  0.49530000  1
  C  C328  1  0.08850000  0.74870000  0.75120000  1
  C  C329  1  0.08850000  0.75130000  0.24880000  1
  C  C330  1  0.08550000  0.99690000  0.89360000  1
  C  C331  1  0.08550000  0.50310000  0.10640000  1
  C  C332  1  0.07400000  0.56660000  0.87420000  1
  C  C333  1  0.07400000  0.93340000  0.12580000  1
  C  C334  1  0.05160000  0.73060000  0.72090000  1
  C  C335  1  0.05160000  0.76940000  0.27910000  1
  C  C336  1  0.04550000  0.18040000  0.69660000  1
  C  C337  1  0.04550000  0.31960000  0.30340000  1
  C  C338  1  0.04050000  0.46590000  0.89740000  1
  C  C339  1  0.04050000  0.03410000  0.10260000  1
  C  C340  1  0.04010000  0.04030000  0.88280000  1
  C  C341  1  0.04010000  0.45970000  0.11720000  1
  C  C342  1  0.02570000  0.19270000  0.76420000  1
  C  C343  1  0.02570000  0.30730000  0.23580000  1
  C  C344  1  0.02300000  0.52250000  0.88540000  1
  C  C345  1  0.02300000  0.97750000  0.11460000  1
  C  C346  1  0.01720000  0.71110000  0.79330000  1
  C  C347  1  0.01720000  0.78890000  0.20670000  1
  C  C348  1  0.00860000  0.92570000  0.90530000  1
  C  C349  1  0.00860000  0.57430000  0.09470000  1
  C  C350  1  0.00710000  0.20150000  0.72710000  1
  C  C351  1  0.00710000  0.29850000  0.27290000  1
  N  N352  1  0.97290000  0.67970000  0.66080000  1
  N  N353  1  0.97290000  0.82030000  0.33920000  1
  N  N354  1  0.93750000  0.12300000  0.86370000  1
  N  N355  1  0.93750000  0.37700000  0.13630000  1
  N  N356  1  0.93030000  0.44020000  0.90410000  1
  N  N357  1  0.93030000  0.05980000  0.09590000  1
  N  N358  1  0.92840000  0.23780000  0.78760000  1
  N  N359  1  0.92840000  0.26220000  0.21240000  1
  N  N360  1  0.91860000  0.65450000  0.64260000  1
  N  N361  1  0.91860000  0.84550000  0.35740000  1
  N  N362  1  0.89550000  0.65960000  0.70310000  1
  N  N363  1  0.89550000  0.84040000  0.29690000  1
  N  N364  1  0.88030000  0.14560000  0.85450000  1
  N  N365  1  0.88030000  0.35440000  0.14550000  1
  N  N366  1  0.87460000  0.64380000  0.66880000  1
  N  N367  1  0.87460000  0.85620000  0.33120000  1
  N  N368  1  0.87140000  0.64630000  0.52150000  1
  N  N369  1  0.87140000  0.85370000  0.47850000  1
  N  N370  1  0.86380000  0.05180000  0.87200000  1
  N  N371  1  0.86380000  0.44820000  0.12800000  1
  N  N372  1  0.83590000  0.10360000  0.85870000  1
  N  N373  1  0.83590000  0.39640000  0.14130000  1
  N  N374  1  0.82370000  0.33920000  0.82080000  1
  N  N375  1  0.82370000  0.16080000  0.17920000  1
  N  N376  1  0.81870000  0.38290000  0.84470000  1
  N  N377  1  0.81870000  0.11710000  0.15530000  1
  N  N378  1  0.81330000  0.72280000  0.58907000  1
  N  N379  1  0.81330000  0.77720000  0.41093000  1
  N  N380  1  0.81170000  0.36140000  0.78570000  1
  N  N381  1  0.81170000  0.13860000  0.21430000  1
  N  N382  1  0.80830000  0.43660000  0.82740000  1
  N  N383  1  0.80830000  0.06340000  0.17260000  1
  N  N384  1  0.77630000  0.24600000  0.88330000  1
  N  N385  1  0.77630000  0.25400000  0.11670000  1
  N  N386  1  0.77440000  0.54470000  0.70320000  1
  N  N387  1  0.77440000  0.95530000  0.29680000  1
  N  N388  1  0.77120000  0.70770000  0.61650000  1
  N  N389  1  0.77120000  0.79230000  0.38350000  1
  N  N390  1  0.76630000  0.28640000  0.90965000  1
  N  N391  1  0.76630000  0.21360000  0.09035000  1
  N  N392  1  0.73370000  0.78640000  0.59035000  1
  N  N393  1  0.73370000  0.71360000  0.40965000  1
  N  N394  1  0.72880000  0.20770000  0.88350000  1
  N  N395  1  0.72880000  0.29230000  0.11650000  1
  N  N396  1  0.72560000  0.04470000  0.79680000  1
  N  N397  1  0.72560000  0.45530000  0.20320000  1
  N  N398  1  0.72370000  0.74600000  0.61670000  1
  N  N399  1  0.72370000  0.75400000  0.38330000  1
  N  N400  1  0.69170000  0.93660000  0.67260000  1
  N  N401  1  0.69170000  0.56340000  0.32740000  1
  N  N402  1  0.68830000  0.86140000  0.71430000  1
  N  N403  1  0.68830000  0.63860000  0.28570000  1
  N  N404  1  0.68670000  0.22280000  0.91093000  1
  N  N405  1  0.68670000  0.27720000  0.08907000  1
  N  N406  1  0.68130000  0.88290000  0.65530000  1
  N  N407  1  0.68130000  0.61710000  0.34470000  1
  N  N408  1  0.67630000  0.83920000  0.67920000  1
  N  N409  1  0.67630000  0.66080000  0.32080000  1
  N  N410  1  0.66410000  0.60360000  0.64130000  1
  N  N411  1  0.66410000  0.89640000  0.35870000  1
  N  N412  1  0.63620000  0.55180000  0.62800000  1
  N  N413  1  0.63620000  0.94820000  0.37200000  1
  N  N414  1  0.62860000  0.14630000  0.97850000  1
  N  N415  1  0.62860000  0.35370000  0.02150000  1
  N  N416  1  0.62540000  0.14380000  0.83120000  1
  N  N417  1  0.62540000  0.35620000  0.16880000  1
  N  N418  1  0.61970000  0.64560000  0.64550000  1
  N  N419  1  0.61970000  0.85440000  0.35450000  1
  N  N420  1  0.60450000  0.15960000  0.79690000  1
  N  N421  1  0.60450000  0.34040000  0.20310000  1
  N  N422  1  0.58140000  0.15450000  0.85740000  1
  N  N423  1  0.58140000  0.34550000  0.14260000  1
  N  N424  1  0.57160000  0.73780000  0.71240000  1
  N  N425  1  0.57160000  0.76220000  0.28760000  1
  N  N426  1  0.56970000  0.94020000  0.59590000  1
  N  N427  1  0.56970000  0.55980000  0.40410000  1
  N  N428  1  0.56250000  0.62300000  0.63630000  1
  N  N429  1  0.56250000  0.87700000  0.36370000  1
  N  N430  1  0.52710000  0.17970000  0.83920000  1
  N  N431  1  0.52710000  0.32030000  0.16080000  1
  N  N432  1  0.47290000  0.67970000  0.83920000  1
  N  N433  1  0.47290000  0.82030000  0.16080000  1
  N  N434  1  0.43750000  0.12300000  0.63630000  1
  N  N435  1  0.43750000  0.37700000  0.36370000  1
  N  N436  1  0.43030000  0.44020000  0.59590000  1
  N  N437  1  0.43030000  0.05980000  0.40410000  1
  N  N438  1  0.42840000  0.23780000  0.71240000  1
  N  N439  1  0.42840000  0.26220000  0.28760000  1
  N  N440  1  0.41860000  0.65450000  0.85740000  1
  N  N441  1  0.41860000  0.84550000  0.14260000  1
  N  N442  1  0.39550000  0.65960000  0.79690000  1
  N  N443  1  0.39550000  0.84040000  0.20310000  1
  N  N444  1  0.38030000  0.14560000  0.64550000  1
  N  N445  1  0.38030000  0.35440000  0.35450000  1
  N  N446  1  0.37460000  0.64380000  0.83120000  1
  N  N447  1  0.37460000  0.85620000  0.16880000  1
  N  N448  1  0.37140000  0.64630000  0.97850000  1
  N  N449  1  0.37140000  0.85370000  0.02150000  1
  N  N450  1  0.36380000  0.05180000  0.62800000  1
  N  N451  1  0.36380000  0.44820000  0.37200000  1
  N  N452  1  0.33590000  0.10360000  0.64130000  1
  N  N453  1  0.33590000  0.39640000  0.35870000  1
  N  N454  1  0.32370000  0.33920000  0.67920000  1
  N  N455  1  0.32370000  0.16080000  0.32080000  1
  N  N456  1  0.31870000  0.38290000  0.65530000  1
  N  N457  1  0.31870000  0.11710000  0.34470000  1
  N  N458  1  0.31330000  0.72280000  0.91093000  1
  N  N459  1  0.31330000  0.77720000  0.08907000  1
  N  N460  1  0.31170000  0.36140000  0.71430000  1
  N  N461  1  0.31170000  0.13860000  0.28570000  1
  N  N462  1  0.30830000  0.43660000  0.67260000  1
  N  N463  1  0.30830000  0.06340000  0.32740000  1
  N  N464  1  0.27630000  0.24600000  0.61670000  1
  N  N465  1  0.27630000  0.25400000  0.38330000  1
  N  N466  1  0.27440000  0.54470000  0.79680000  1
  N  N467  1  0.27440000  0.95530000  0.20320000  1
  N  N468  1  0.27120000  0.70770000  0.88350000  1
  N  N469  1  0.27120000  0.79230000  0.11650000  1
  N  N470  1  0.26630000  0.28640000  0.59035000  1
  N  N471  1  0.26630000  0.21360000  0.40965000  1
  N  N472  1  0.23370000  0.78640000  0.90965000  1
  N  N473  1  0.23370000  0.71360000  0.09035000  1
  N  N474  1  0.22880000  0.20770000  0.61650000  1
  N  N475  1  0.22880000  0.29230000  0.38350000  1
  N  N476  1  0.22560000  0.04470000  0.70320000  1
  N  N477  1  0.22560000  0.45530000  0.29680000  1
  N  N478  1  0.22370000  0.74600000  0.88330000  1
  N  N479  1  0.22370000  0.75400000  0.11670000  1
  N  N480  1  0.19170000  0.93660000  0.82740000  1
  N  N481  1  0.19170000  0.56340000  0.17260000  1
  N  N482  1  0.18830000  0.86140000  0.78570000  1
  N  N483  1  0.18830000  0.63860000  0.21430000  1
  N  N484  1  0.18670000  0.22280000  0.58907000  1
  N  N485  1  0.18670000  0.27720000  0.41093000  1
  N  N486  1  0.18130000  0.88290000  0.84470000  1
  N  N487  1  0.18130000  0.61710000  0.15530000  1
  N  N488  1  0.17630000  0.83920000  0.82080000  1
  N  N489  1  0.17630000  0.66080000  0.17920000  1
  N  N490  1  0.16410000  0.60360000  0.85870000  1
  N  N491  1  0.16410000  0.89640000  0.14130000  1
  N  N492  1  0.13620000  0.55180000  0.87200000  1
  N  N493  1  0.13620000  0.94820000  0.12800000  1
  N  N494  1  0.12860000  0.14630000  0.52150000  1
  N  N495  1  0.12860000  0.35370000  0.47850000  1
  N  N496  1  0.12540000  0.14380000  0.66880000  1
  N  N497  1  0.12540000  0.35620000  0.33120000  1
  N  N498  1  0.11970000  0.64560000  0.85450000  1
  N  N499  1  0.11970000  0.85440000  0.14550000  1
  N  N500  1  0.10450000  0.15960000  0.70310000  1
  N  N501  1  0.10450000  0.34040000  0.29690000  1
  N  N502  1  0.08140000  0.15450000  0.64260000  1
  N  N503  1  0.08140000  0.34550000  0.35740000  1
  N  N504  1  0.07160000  0.73780000  0.78760000  1
  N  N505  1  0.07160000  0.76220000  0.21240000  1
  N  N506  1  0.06970000  0.94020000  0.90410000  1
  N  N507  1  0.06970000  0.55980000  0.09590000  1
  N  N508  1  0.06250000  0.62300000  0.86370000  1
  N  N509  1  0.06250000  0.87700000  0.13630000  1
  N  N510  1  0.02710000  0.17970000  0.66080000  1
  N  N511  1  0.02710000  0.32030000  0.33920000  1
  Cl  Cl512  1  0.93276000  0.28756000  0.88517000  1
  Cl  Cl513  1  0.93276000  0.21244000  0.11483000  1
  Cl  Cl514  1  0.81245000  0.55945000  0.59860000  1
  Cl  Cl515  1  0.81245000  0.94055000  0.40140000  1
  Cl  Cl516  1  0.76926000  0.19555000  0.79197000  1
  Cl  Cl517  1  0.76926000  0.30445000  0.20803000  1
  Cl  Cl518  1  0.73074000  0.69555000  0.70803000  1
  Cl  Cl519  1  0.73074000  0.80445000  0.29197000  1
  Cl  Cl520  1  0.68755000  0.05945000  0.90140000  1
  Cl  Cl521  1  0.68755000  0.44055000  0.09860000  1
  Cl  Cl522  1  0.56724000  0.78756000  0.61483000  1
  Cl  Cl523  1  0.56724000  0.71244000  0.38517000  1
  Cl  Cl524  1  0.43276000  0.28756000  0.61483000  1
  Cl  Cl525  1  0.43276000  0.21244000  0.38517000  1
  Cl  Cl526  1  0.31245000  0.55945000  0.90140000  1
  Cl  Cl527  1  0.31245000  0.94055000  0.09860000  1
  Cl  Cl528  1  0.26926000  0.19555000  0.70803000  1
  Cl  Cl529  1  0.26926000  0.30445000  0.29197000  1
  Cl  Cl530  1  0.23074000  0.69555000  0.79197000  1
  Cl  Cl531  1  0.23074000  0.80445000  0.20803000  1
  Cl  Cl532  1  0.18755000  0.05945000  0.59860000  1
  Cl  Cl533  1  0.18755000  0.44055000  0.40140000  1
  Cl  Cl534  1  0.06724000  0.78756000  0.88517000  1
  Cl  Cl535  1  0.06724000  0.71244000  0.11483000  1
