# generated using pymatgen
data_CdH32C47S(N2O3)2
_symmetry_space_group_name_H-M   'P 1'
_cell_length_a   18.45380000
_cell_length_b   25.34420000
_cell_length_c   37.78300000
_cell_angle_alpha   90.00000000
_cell_angle_beta   90.00000000
_cell_angle_gamma   90.00000000
_symmetry_Int_Tables_number   1
_chemical_formula_structural   CdH32C47S(N2O3)2
_chemical_formula_sum   'Cd8 H256 C376 S8 N32 O48'
_cell_volume   17670.98811732
_cell_formula_units_Z   8
loop_
 _symmetry_equiv_pos_site_id
 _symmetry_equiv_pos_as_xyz
  1  'x, y, z'
loop_
 _atom_site_type_symbol
 _atom_site_label
 _atom_site_symmetry_multiplicity
 _atom_site_fract_x
 _atom_site_fract_y
 _atom_site_fract_z
 _atom_site_occupancy
  Cd  Cd0  1  0.02686000  0.63268000  0.72605000  1
  Cd  Cd1  1  0.11450000  0.12291000  0.70082000  1
  Cd  Cd2  1  0.38550000  0.87709000  0.20082000  1
  Cd  Cd3  1  0.47314000  0.36732000  0.22605000  1
  Cd  Cd4  1  0.52686000  0.86732000  0.27395000  1
  Cd  Cd5  1  0.61450000  0.37709000  0.29918000  1
  Cd  Cd6  1  0.88550000  0.62291000  0.79918000  1
  Cd  Cd7  1  0.97314000  0.13268000  0.77395000  1
  H  H8  1  0.00420000  0.48170000  0.85500000  1
  H  H9  1  0.00640000  0.96850000  0.86130000  1
  H  H10  1  0.00660000  0.15220000  0.63260000  1
  H  H11  1  0.00790000  0.99660000  0.58190000  1
  H  H12  1  0.01980000  0.71240000  0.90700000  1
  H  H13  1  0.03030000  0.00240000  0.92690000  1
  H  H14  1  0.03390000  0.85980000  0.02430000  1
  H  H15  1  0.03910000  0.98320000  0.47700000  1
  H  H16  1  0.04370000  0.57580000  0.58590000  1
  H  H17  1  0.05250000  0.15960000  0.84550000  1
  H  H18  1  0.05450000  0.49420000  0.47660000  1
  H  H19  1  0.05590000  0.35830000  0.01210000  1
  H  H20  1  0.06250000  0.26890000  0.78200000  1
  H  H21  1  0.07070000  0.78640000  0.92860000  1
  H  H22  1  0.07160000  0.22560000  0.88820000  1
  H  H23  1  0.07920000  0.89950000  0.88030000  1
  H  H24  1  0.08420000  0.65320000  0.59270000  1
  H  H25  1  0.08620000  0.90940000  0.56180000  1
  H  H26  1  0.08670000  0.06800000  0.58330000  1
  H  H27  1  0.08910000  0.80800000  0.65660000  1
  H  H28  1  0.08950000  0.73030000  0.82230000  1
  H  H29  1  0.09200000  0.42270000  0.55740000  1
  H  H30  1  0.09210000  0.34230000  0.81570000  1
  H  H31  1  0.09940000  0.42010000  0.86790000  1
  H  H32  1  0.10420000  0.84060000  0.60050000  1
  H  H33  1  0.10460000  0.85960000  0.96000000  1
  H  H34  1  0.10660000  0.84760000  0.07190000  1
  H  H35  1  0.10780000  0.73780000  0.69510000  1
  H  H36  1  0.11060000  0.30480000  0.90510000  1
  H  H37  1  0.11180000  0.31320000  0.64540000  1
  H  H38  1  0.11490000  0.00460000  0.00790000  1
  H  H39  1  0.11790000  0.05460000  0.47850000  1
  H  H40  1  0.11830000  0.35740000  0.59660000  1
  H  H41  1  0.11970000  0.79170000  0.86560000  1
  H  H42  1  0.12240000  0.50650000  0.99710000  1
  H  H43  1  0.12260000  0.57140000  0.48730000  1
  H  H44  1  0.12630000  0.14590000  0.57910000  1
  H  H45  1  0.12700000  0.37500000  0.94560000  1
  H  H46  1  0.13020000  0.35030000  0.05960000  1
  H  H47  1  0.13290000  0.53820000  0.77550000  1
  H  H48  1  0.14410000  0.24210000  0.67960000  1
  H  H49  1  0.14770000  0.85160000  0.12570000  1
  H  H50  1  0.14950000  0.52180000  0.63270000  1
  H  H51  1  0.15210000  0.72800000  0.60020000  1
  H  H52  1  0.16020000  0.03610000  0.64260000  1
  H  H53  1  0.16650000  0.35730000  0.11390000  1
  H  H54  1  0.17710000  0.03370000  0.81190000  1
  H  H55  1  0.18820000  0.63160000  0.50060000  1
  H  H56  1  0.19070000  0.99460000  0.05670000  1
  H  H57  1  0.19250000  0.49990000  0.04700000  1
  H  H58  1  0.19780000  0.68970000  0.30340000  1
  H  H59  1  0.19850000  0.21940000  0.58210000  1
  H  H60  1  0.20890000  0.10610000  0.48570000  1
  H  H61  1  0.21100000  0.51800000  0.57970000  1
  H  H62  1  0.21370000  0.15760000  0.30530000  1
  H  H63  1  0.21680000  0.47180000  0.78630000  1
  H  H64  1  0.21820000  0.81500000  0.99080000  1
  H  H65  1  0.23180000  0.76590000  0.26960000  1
  H  H66  1  0.23650000  0.83600000  0.16870000  1
  H  H67  1  0.23700000  0.22660000  0.26430000  1
  H  H68  1  0.23800000  0.02050000  0.59730000  1
  H  H69  1  0.24090000  0.71450000  0.51020000  1
  H  H70  1  0.24110000  0.35900000  0.16670000  1
  H  H71  1  0.24990000  0.96470000  0.83090000  1
  H  H72  1  0.25010000  0.03530000  0.33090000  1
  H  H73  1  0.25890000  0.64100000  0.66666667  1
  H  H74  1  0.25910000  0.28550000  0.01020000  1
  H  H75  1  0.26200000  0.97950000  0.09730000  1
  H  H76  1  0.26300000  0.77340000  0.76430000  1
  H  H77  1  0.26350000  0.16400000  0.66870000  1
  H  H78  1  0.26820000  0.23410000  0.76960000  1
  H  H79  1  0.28180000  0.18500000  0.49080000  1
  H  H80  1  0.28320000  0.52820000  0.28630000  1
  H  H81  1  0.28630000  0.84240000  0.80530000  1
  H  H82  1  0.28900000  0.48200000  0.07970000  1
  H  H83  1  0.29110000  0.89390000  0.98570000  1
  H  H84  1  0.30150000  0.78060000  0.08210000  1
  H  H85  1  0.30220000  0.31030000  0.80340000  1
  H  H86  1  0.30750000  0.50010000  0.54700000  1
  H  H87  1  0.30930000  0.00540000  0.55670000  1
  H  H88  1  0.31180000  0.36840000  0.00060000  1
  H  H89  1  0.32290000  0.96630000  0.31190000  1
  H  H90  1  0.33350000  0.64270000  0.61390000  1
  H  H91  1  0.33980000  0.96390000  0.14260000  1
  H  H92  1  0.34790000  0.27200000  0.10020000  1
  H  H93  1  0.35050000  0.47820000  0.13270000  1
  H  H94  1  0.35230000  0.14840000  0.62570000  1
  H  H95  1  0.35590000  0.75790000  0.17960000  1
  H  H96  1  0.36710000  0.46180000  0.27550000  1
  H  H97  1  0.36980000  0.64970000  0.55960000  1
  H  H98  1  0.37300000  0.62500000  0.44560000  1
  H  H99  1  0.37370000  0.85410000  0.07910000  1
  H  H100  1  0.37740000  0.42860000  0.98730000  1
  H  H101  1  0.37760000  0.49350000  0.49710000  1
  H  H102  1  0.38030000  0.20830000  0.36560000  1
  H  H103  1  0.38170000  0.64260000  0.09660000  1
  H  H104  1  0.38210000  0.94540000  0.97850000  1
  H  H105  1  0.38510000  0.99540000  0.50790000  1
  H  H106  1  0.38820000  0.68680000  0.14540000  1
  H  H107  1  0.38940000  0.69520000  0.40510000  1
  H  H108  1  0.39220000  0.26220000  0.19510000  1
  H  H109  1  0.39340000  0.15240000  0.57190000  1
  H  H110  1  0.39540000  0.14040000  0.46000000  1
  H  H111  1  0.39580000  0.15940000  0.10050000  1
  H  H112  1  0.40060000  0.57990000  0.36790000  1
  H  H113  1  0.40790000  0.65770000  0.31570000  1
  H  H114  1  0.40800000  0.57730000  0.05740000  1
  H  H115  1  0.41050000  0.26970000  0.32230000  1
  H  H116  1  0.41090000  0.19200000  0.15660000  1
  H  H117  1  0.41330000  0.93200000  0.08330000  1
  H  H118  1  0.41380000  0.09060000  0.06180000  1
  H  H119  1  0.41580000  0.34680000  0.09270000  1
  H  H120  1  0.42080000  0.10050000  0.38030000  1
  H  H121  1  0.42840000  0.77440000  0.38820000  1
  H  H122  1  0.42930000  0.21360000  0.42860000  1
  H  H123  1  0.43750000  0.73110000  0.28200000  1
  H  H124  1  0.44410000  0.64170000  0.51210000  1
  H  H125  1  0.44550000  0.50580000  0.97660000  1
  H  H126  1  0.44750000  0.84040000  0.34550000  1
  H  H127  1  0.45630000  0.42420000  0.08590000  1
  H  H128  1  0.46090000  0.01680000  0.97700000  1
  H  H129  1  0.46610000  0.14020000  0.52430000  1
  H  H130  1  0.46970000  0.99760000  0.42690000  1
  H  H131  1  0.48020000  0.28760000  0.40700000  1
  H  H132  1  0.49210000  0.00340000  0.08190000  1
  H  H133  1  0.49340000  0.84780000  0.13260000  1
  H  H134  1  0.49360000  0.03150000  0.36130000  1
  H  H135  1  0.49580000  0.51830000  0.35500000  1
  H  H136  1  0.50420000  0.01830000  0.14500000  1
  H  H137  1  0.50640000  0.53150000  0.13870000  1
  H  H138  1  0.50660000  0.34780000  0.36740000  1
  H  H139  1  0.50790000  0.50340000  0.41810000  1
  H  H140  1  0.51980000  0.78760000  0.09300000  1
  H  H141  1  0.53030000  0.49760000  0.07310000  1
  H  H142  1  0.53390000  0.64020000  0.97570000  1
  H  H143  1  0.53910000  0.51680000  0.52300000  1
  H  H144  1  0.54370000  0.92420000  0.41410000  1
  H  H145  1  0.55250000  0.34040000  0.15450000  1
  H  H146  1  0.55450000  0.00580000  0.52340000  1
  H  H147  1  0.55590000  0.14170000  0.98790000  1
  H  H148  1  0.56250000  0.23110000  0.21800000  1
  H  H149  1  0.57070000  0.71360000  0.07140000  1
  H  H150  1  0.57160000  0.27440000  0.11180000  1
  H  H151  1  0.57920000  0.60050000  0.11970000  1
  H  H152  1  0.58420000  0.84680000  0.40730000  1
  H  H153  1  0.58620000  0.59060000  0.43820000  1
  H  H154  1  0.58670000  0.43200000  0.41670000  1
  H  H155  1  0.58910000  0.69200000  0.34340000  1
  H  H156  1  0.58950000  0.76970000  0.17770000  1
  H  H157  1  0.59200000  0.07730000  0.44260000  1
  H  H158  1  0.59210000  0.15770000  0.18430000  1
  H  H159  1  0.59940000  0.07990000  0.13210000  1
  H  H160  1  0.60420000  0.65940000  0.39950000  1
  H  H161  1  0.60460000  0.64040000  0.04000000  1
  H  H162  1  0.60660000  0.65240000  0.92810000  1
  H  H163  1  0.60780000  0.76220000  0.30490000  1
  H  H164  1  0.61060000  0.19520000  0.09490000  1
  H  H165  1  0.61180000  0.18680000  0.35460000  1
  H  H166  1  0.61490000  0.49540000  0.99210000  1
  H  H167  1  0.61790000  0.44540000  0.52150000  1
  H  H168  1  0.61830000  0.14260000  0.40340000  1
  H  H169  1  0.61970000  0.70830000  0.13440000  1
  H  H170  1  0.62240000  0.99350000  0.00290000  1
  H  H171  1  0.62260000  0.92860000  0.51270000  1
  H  H172  1  0.62630000  0.35410000  0.42090000  1
  H  H173  1  0.62700000  0.12500000  0.05440000  1
  H  H174  1  0.63020000  0.14970000  0.94040000  1
  H  H175  1  0.63290000  0.96180000  0.22450000  1
  H  H176  1  0.64410000  0.25790000  0.32040000  1
  H  H177  1  0.64770000  0.64840000  0.87430000  1
  H  H178  1  0.64950000  0.97820000  0.36730000  1
  H  H179  1  0.65210000  0.77200000  0.39980000  1
  H  H180  1  0.66020000  0.46390000  0.35740000  1
  H  H181  1  0.66650000  0.14270000  0.88610000  1
  H  H182  1  0.67710000  0.46630000  0.18810000  1
  H  H183  1  0.68820000  0.86840000  0.49940000  1
  H  H184  1  0.69070000  0.50540000  0.94330000  1
  H  H185  1  0.69250000  0.00010000  0.95300000  1
  H  H186  1  0.69780000  0.81030000  0.69660000  1
  H  H187  1  0.69850000  0.28060000  0.41790000  1
  H  H188  1  0.70890000  0.39390000  0.51430000  1
  H  H189  1  0.71100000  0.98200000  0.42030000  1
  H  H190  1  0.71370000  0.34240000  0.69470000  1
  H  H191  1  0.71680000  0.02820000  0.21370000  1
  H  H192  1  0.71820000  0.68500000  0.00920000  1
  H  H193  1  0.73180000  0.73410000  0.73040000  1
  H  H194  1  0.73650000  0.66400000  0.83130000  1
  H  H195  1  0.73700000  0.27340000  0.73570000  1
  H  H196  1  0.73800000  0.47950000  0.40270000  1
  H  H197  1  0.74090000  0.78550000  0.48980000  1
  H  H198  1  0.74110000  0.14100000  0.83330000  1
  H  H199  1  0.74990000  0.53530000  0.16910000  1
  H  H200  1  0.75010000  0.46470000  0.66910000  1
  H  H201  1  0.75890000  0.85900000  0.33333333  1
  H  H202  1  0.75910000  0.21450000  0.98980000  1
  H  H203  1  0.76200000  0.52050000  0.90270000  1
  H  H204  1  0.76300000  0.72660000  0.23570000  1
  H  H205  1  0.76350000  0.33600000  0.33130000  1
  H  H206  1  0.76820000  0.26590000  0.23040000  1
  H  H207  1  0.78180000  0.31500000  0.50920000  1
  H  H208  1  0.78320000  0.97180000  0.71370000  1
  H  H209  1  0.78630000  0.65760000  0.19470000  1
  H  H210  1  0.78900000  0.01800000  0.92030000  1
  H  H211  1  0.79110000  0.60610000  0.01430000  1
  H  H212  1  0.80150000  0.71940000  0.91790000  1
  H  H213  1  0.80220000  0.18970000  0.19660000  1
  H  H214  1  0.80750000  0.99990000  0.45300000  1
  H  H215  1  0.80930000  0.49460000  0.44330000  1
  H  H216  1  0.81180000  0.13160000  0.99940000  1
  H  H217  1  0.82290000  0.53370000  0.68810000  1
  H  H218  1  0.83350000  0.85730000  0.38610000  1
  H  H219  1  0.83980000  0.53610000  0.85740000  1
  H  H220  1  0.84790000  0.22800000  0.89980000  1
  H  H221  1  0.85050000  0.02180000  0.86730000  1
  H  H222  1  0.85230000  0.35160000  0.37430000  1
  H  H223  1  0.85590000  0.74210000  0.82040000  1
  H  H224  1  0.86710000  0.03820000  0.72450000  1
  H  H225  1  0.86980000  0.85030000  0.44040000  1
  H  H226  1  0.87300000  0.87500000  0.55440000  1
  H  H227  1  0.87370000  0.64590000  0.92090000  1
  H  H228  1  0.87740000  0.07140000  0.01270000  1
  H  H229  1  0.87760000  0.00650000  0.50290000  1
  H  H230  1  0.88030000  0.29170000  0.63440000  1
  H  H231  1  0.88170000  0.85740000  0.90340000  1
  H  H232  1  0.88210000  0.55460000  0.02150000  1
  H  H233  1  0.88510000  0.50460000  0.49210000  1
  H  H234  1  0.88820000  0.81320000  0.85460000  1
  H  H235  1  0.88940000  0.80480000  0.59490000  1
  H  H236  1  0.89220000  0.23780000  0.80490000  1
  H  H237  1  0.89340000  0.34760000  0.42810000  1
  H  H238  1  0.89540000  0.35960000  0.54000000  1
  H  H239  1  0.89580000  0.34060000  0.89950000  1
  H  H240  1  0.90060000  0.92010000  0.63210000  1
  H  H241  1  0.90790000  0.84230000  0.68430000  1
  H  H242  1  0.90800000  0.92270000  0.94260000  1
  H  H243  1  0.91050000  0.23030000  0.67770000  1
  H  H244  1  0.91090000  0.30800000  0.84340000  1
  H  H245  1  0.91330000  0.56800000  0.91670000  1
  H  H246  1  0.91380000  0.40940000  0.93820000  1
  H  H247  1  0.91580000  0.15320000  0.90730000  1
  H  H248  1  0.92080000  0.39950000  0.61970000  1
  H  H249  1  0.92840000  0.72560000  0.61180000  1
  H  H250  1  0.92930000  0.28640000  0.57140000  1
  H  H251  1  0.93750000  0.76890000  0.71800000  1
  H  H252  1  0.94410000  0.85830000  0.48790000  1
  H  H253  1  0.94550000  0.99420000  0.02340000  1
  H  H254  1  0.94750000  0.65960000  0.65450000  1
  H  H255  1  0.95630000  0.07580000  0.91410000  1
  H  H256  1  0.96090000  0.48320000  0.02300000  1
  H  H257  1  0.96610000  0.35980000  0.47570000  1
  H  H258  1  0.96970000  0.50240000  0.57310000  1
  H  H259  1  0.98020000  0.21240000  0.59300000  1
  H  H260  1  0.99210000  0.49660000  0.91810000  1
  H  H261  1  0.99340000  0.65220000  0.86740000  1
  H  H262  1  0.99360000  0.46850000  0.63870000  1
  H  H263  1  0.99580000  0.98170000  0.64500000  1
  C  C264  1  0.00090000  0.31600000  0.89614000  1
  C  C265  1  0.00250000  0.51500000  0.55650000  1
  C  C266  1  0.00620000  0.77270000  0.62965000  1
  C  C267  1  0.00670000  0.89660000  0.95802000  1
  C  C268  1  0.00720000  0.55930000  0.80625000  1
  C  C269  1  0.01140000  0.48990000  0.52460000  1
  C  C270  1  0.01180000  0.22070000  0.61140000  1
  C  C271  1  0.01570000  0.98290000  0.52927000  1
  C  C272  1  0.02120000  0.39660000  0.94640000  1
  C  C273  1  0.02370000  0.18970000  0.84486000  1
  C  C274  1  0.02630000  0.31390000  0.58913000  1
  C  C275  1  0.02930000  0.18490000  0.63479000  1
  C  C276  1  0.03000000  0.00830000  0.56113000  1
  C  C277  1  0.03570000  0.22960000  0.87112000  1
  C  C278  1  0.03830000  0.05160000  0.82316000  1
  C  C279  1  0.03930000  0.81500000  0.93009000  1
  C  C280  1  0.04140000  0.27300000  0.61420000  1
  C  C281  1  0.04490000  0.56070000  0.56345000  1
  C  C282  1  0.04750000  0.48100000  0.84239000  1
  C  C283  1  0.04760000  0.88790000  0.56817000  1
  C  C284  1  0.04870000  0.00020000  0.49830000  1
  C  C285  1  0.05250000  0.51060000  0.49859000  1
  C  C286  1  0.05520000  0.96770000  0.85518000  1
  C  C287  1  0.05780000  0.84750000  0.59200000  1
  C  C288  1  0.05800000  0.85710000  0.95077000  1
  C  C289  1  0.05870000  0.39560000  0.56082000  1
  C  C290  1  0.06040000  0.77800000  0.65536000  1
  C  C291  1  0.06380000  0.51750000  0.81496000  1
  C  C292  1  0.06640000  0.88630000  0.03056000  1
  C  C293  1  0.06940000  0.73590000  0.67919000  1
  C  C294  1  0.06970000  0.93120000  0.01014000  1
  C  C295  1  0.07140000  0.32590000  0.91152000  1
  C  C296  1  0.07500000  0.35630000  0.58401000  1
  C  C297  1  0.07720000  0.05100000  0.56203000  1
  C  C298  1  0.08040000  0.43310000  0.99940000  1
  C  C299  1  0.08140000  0.36760000  0.93638000  1
  C  C300  1  0.08440000  0.38690000  0.01872000  1
  C  C301  1  0.08450000  0.00790000  0.83468000  1
  C  C302  1  0.08680000  0.58280000  0.53806000  1
  C  C303  1  0.09070000  0.28040000  0.64147000  1
  C  C304  1  0.09280000  0.55750000  0.50479000  1
  C  C305  1  0.09590000  0.04290000  0.49920000  1
  C  C306  1  0.09880000  0.92640000  0.86658000  1
  C  C307  1  0.10360000  0.44320000  0.84885000  1
  C  C308  1  0.10770000  0.23740000  0.66289000  1
  C  C309  1  0.10870000  0.87920000  0.05956000  1
  C  C310  1  0.11010000  0.06830000  0.53106000  1
  C  C311  1  0.11110000  0.27690000  0.78580000  1
  C  C312  1  0.11480000  0.97330000  0.02067000  1
  C  C313  1  0.11720000  0.66340000  0.57550000  1
  C  C314  1  0.12300000  0.47520000  0.00993000  1
  C  C315  1  0.12550000  0.51420000  0.79376000  1
  C  C316  1  0.12670000  0.63350000  0.54538000  1
  C  C317  1  0.12870000  0.32190000  0.80572000  1
  C  C318  1  0.12890000  0.38210000  0.04721000  1
  C  C319  1  0.12980000  0.75180000  0.81896000  1
  C  C320  1  0.14240000  0.19970000  0.75083000  1
  C  C321  1  0.14680000  0.78910000  0.84488000  1
  C  C322  1  0.14960000  0.70420000  0.76319000  1
  C  C323  1  0.15550000  0.91890000  0.07102000  1
  C  C324  1  0.15710000  0.70840000  0.57950000  1
  C  C325  1  0.15750000  0.00680000  0.82557000  1
  C  C326  1  0.15760000  0.15270000  0.56040000  1
  C  C327  1  0.15840000  0.11550000  0.53098000  1
  C  C328  1  0.15910000  0.96770000  0.05024000  1
  C  C329  1  0.16140000  0.24560000  0.77217000  1
  C  C330  1  0.16410000  0.44040000  0.82713000  1
  C  C331  1  0.16650000  0.47060000  0.03944000  1
  C  C332  1  0.17080000  0.74560000  0.78833000  1
  C  C333  1  0.17180000  0.92520000  0.85748000  1
  C  C334  1  0.17280000  0.42400000  0.05825000  1
  C  C335  1  0.17560000  0.47470000  0.80029000  1
  C  C336  1  0.17710000  0.65110000  0.52070000  1
  C  C337  1  0.18570000  0.54650000  0.62828000  1
  C  C338  1  0.18780000  0.87360000  0.12787000  1
  C  C339  1  0.19840000  0.33530000  0.81041000  1
  C  C340  1  0.19930000  0.05880000  0.63952000  1
  C  C341  1  0.20030000  0.91510000  0.10414000  1
  C  C342  1  0.20060000  0.19760000  0.56234000  1
  C  C343  1  0.20110000  0.96550000  0.83697000  1
  C  C344  1  0.20280000  0.38250000  0.11658000  1
  C  C345  1  0.20440000  0.12770000  0.50548000  1
  C  C346  1  0.20570000  0.82200000  0.83868000  1
  C  C347  1  0.21100000  0.70050000  0.52766000  1
  C  C348  1  0.21500000  0.42100000  0.09028000  1
  C  C349  1  0.22390000  0.54290000  0.59665000  1
  C  C350  1  0.23270000  0.25660000  0.77844000  1
  C  C351  1  0.23270000  0.77830000  0.78368000  1
  C  C352  1  0.23930000  0.86660000  0.15527000  1
  C  C353  1  0.24460000  0.05010000  0.61150000  1
  C  C354  1  0.24610000  0.69720000  0.29859000  1
  C  C355  1  0.24830000  0.81880000  0.80893000  1
  C  C356  1  0.24910000  0.17670000  0.50870000  1
  C  C357  1  0.24970000  0.38330000  0.14874000  1
  C  C358  1  0.25030000  0.61670000  0.64874000  1
  C  C359  1  0.25090000  0.82330000  0.00870000  1
  C  C360  1  0.25170000  0.18120000  0.30893000  1
  C  C361  1  0.25390000  0.30280000  0.79859000  1
  C  C362  1  0.25540000  0.94990000  0.11150000  1
  C  C363  1  0.26070000  0.13340000  0.65527000  1
  C  C364  1  0.26730000  0.22170000  0.28368000  1
  C  C365  1  0.26730000  0.74340000  0.27844000  1
  C  C366  1  0.27610000  0.45710000  0.09665000  1
  C  C367  1  0.28500000  0.57900000  0.59028000  1
  C  C368  1  0.28900000  0.29950000  0.02766000  1
  C  C369  1  0.29430000  0.17800000  0.33868000  1
  C  C370  1  0.29560000  0.87230000  0.00548000  1
  C  C371  1  0.29720000  0.61750000  0.61658000  1
  C  C372  1  0.29890000  0.03450000  0.33697000  1
  C  C373  1  0.29940000  0.80240000  0.06234000  1
  C  C374  1  0.29970000  0.08490000  0.60414000  1
  C  C375  1  0.30070000  0.94120000  0.13952000  1
  C  C376  1  0.30160000  0.66470000  0.31041000  1
  C  C377  1  0.31220000  0.12640000  0.62787000  1
  C  C378  1  0.31430000  0.45350000  0.12828000  1
  C  C379  1  0.32290000  0.34890000  0.02070000  1
  C  C380  1  0.32440000  0.52530000  0.30029000  1
  C  C381  1  0.32720000  0.57600000  0.55825000  1
  C  C382  1  0.32820000  0.07480000  0.35748000  1
  C  C383  1  0.32920000  0.25440000  0.28833000  1
  C  C384  1  0.33350000  0.52940000  0.53944000  1
  C  C385  1  0.33590000  0.55960000  0.32713000  1
  C  C386  1  0.33860000  0.75440000  0.27217000  1
  C  C387  1  0.34090000  0.03230000  0.55024000  1
  C  C388  1  0.34160000  0.88450000  0.03098000  1
  C  C389  1  0.34240000  0.84730000  0.06040000  1
  C  C390  1  0.34250000  0.99320000  0.32557000  1
  C  C391  1  0.34290000  0.29160000  0.07950000  1
  C  C392  1  0.34450000  0.08110000  0.57102000  1
  C  C393  1  0.35040000  0.29580000  0.26319000  1
  C  C394  1  0.35320000  0.21090000  0.34488000  1
  C  C395  1  0.35760000  0.80030000  0.25083000  1
  C  C396  1  0.37020000  0.24820000  0.31896000  1
  C  C397  1  0.37110000  0.61790000  0.54721000  1
  C  C398  1  0.37130000  0.67810000  0.30572000  1
  C  C399  1  0.37330000  0.36650000  0.04538000  1
  C  C400  1  0.37450000  0.48580000  0.29376000  1
  C  C401  1  0.37700000  0.52480000  0.50993000  1
  C  C402  1  0.38280000  0.33660000  0.07550000  1
  C  C403  1  0.38520000  0.02670000  0.52067000  1
  C  C404  1  0.38890000  0.72310000  0.28580000  1
  C  C405  1  0.38990000  0.93170000  0.03106000  1
  C  C406  1  0.39130000  0.12080000  0.55956000  1
  C  C407  1  0.39230000  0.76260000  0.16289000  1
  C  C408  1  0.39640000  0.55680000  0.34885000  1
  C  C409  1  0.40120000  0.07360000  0.36658000  1
  C  C410  1  0.40410000  0.95710000  0.99920000  1
  C  C411  1  0.40720000  0.44250000  0.00479000  1
  C  C412  1  0.40930000  0.71960000  0.14147000  1
  C  C413  1  0.41320000  0.41720000  0.03806000  1
  C  C414  1  0.41550000  0.99210000  0.33468000  1
  C  C415  1  0.41560000  0.61310000  0.51872000  1
  C  C416  1  0.41860000  0.63240000  0.43638000  1
  C  C417  1  0.41960000  0.56690000  0.49940000  1
  C  C418  1  0.42280000  0.94900000  0.06203000  1
  C  C419  1  0.42500000  0.64370000  0.08401000  1
  C  C420  1  0.42860000  0.67410000  0.41152000  1
  C  C421  1  0.43030000  0.06880000  0.51014000  1
  C  C422  1  0.43060000  0.26410000  0.17919000  1
  C  C423  1  0.43360000  0.11370000  0.53056000  1
  C  C424  1  0.43620000  0.48250000  0.31496000  1
  C  C425  1  0.43960000  0.22200000  0.15536000  1
  C  C426  1  0.44130000  0.60440000  0.06082000  1
  C  C427  1  0.44200000  0.14290000  0.45077000  1
  C  C428  1  0.44220000  0.15250000  0.09200000  1
  C  C429  1  0.44480000  0.03230000  0.35518000  1
  C  C430  1  0.44750000  0.48940000  0.99859000  1
  C  C431  1  0.45130000  0.99980000  0.99830000  1
  C  C432  1  0.45240000  0.11210000  0.06817000  1
  C  C433  1  0.45250000  0.51900000  0.34239000  1
  C  C434  1  0.45510000  0.43930000  0.06345000  1
  C  C435  1  0.45860000  0.72700000  0.11420000  1
  C  C436  1  0.46070000  0.18500000  0.43009000  1
  C  C437  1  0.46170000  0.94840000  0.32316000  1
  C  C438  1  0.46430000  0.77040000  0.37112000  1
  C  C439  1  0.47000000  0.99170000  0.06113000  1
  C  C440  1  0.47070000  0.81510000  0.13479000  1
  C  C441  1  0.47370000  0.68610000  0.08913000  1
  C  C442  1  0.47630000  0.81030000  0.34486000  1
  C  C443  1  0.47880000  0.60340000  0.44640000  1
  C  C444  1  0.48430000  0.01710000  0.02927000  1
  C  C445  1  0.48820000  0.77930000  0.11140000  1
  C  C446  1  0.48860000  0.51010000  0.02460000  1
  C  C447  1  0.49280000  0.44070000  0.30625000  1
  C  C448  1  0.49330000  0.10340000  0.45802000  1
  C  C449  1  0.49380000  0.22730000  0.12965000  1
  C  C450  1  0.49750000  0.48500000  0.05650000  1
  C  C451  1  0.49910000  0.68400000  0.39614000  1
  C  C452  1  0.50090000  0.18400000  0.10386000  1
  C  C453  1  0.50250000  0.98500000  0.44350000  1
  C  C454  1  0.50620000  0.72730000  0.37035000  1
  C  C455  1  0.50670000  0.60340000  0.04198000  1
  C  C456  1  0.50720000  0.94070000  0.19375000  1
  C  C457  1  0.51140000  0.01010000  0.47540000  1
  C  C458  1  0.51180000  0.27930000  0.38860000  1
  C  C459  1  0.51570000  0.51710000  0.47073000  1
  C  C460  1  0.52120000  0.10340000  0.05360000  1
  C  C461  1  0.52370000  0.31030000  0.15514000  1
  C  C462  1  0.52630000  0.18610000  0.41087000  1
  C  C463  1  0.52930000  0.31510000  0.36521000  1
  C  C464  1  0.53000000  0.49170000  0.43887000  1
  C  C465  1  0.53570000  0.27040000  0.12888000  1
  C  C466  1  0.53830000  0.44840000  0.17684000  1
  C  C467  1  0.53930000  0.68500000  0.06991000  1
  C  C468  1  0.54140000  0.22700000  0.38580000  1
  C  C469  1  0.54490000  0.93930000  0.43655000  1
  C  C470  1  0.54750000  0.01900000  0.15761000  1
  C  C471  1  0.54760000  0.61210000  0.43183000  1
  C  C472  1  0.54870000  0.49980000  0.50170000  1
  C  C473  1  0.55250000  0.98940000  0.50141000  1
  C  C474  1  0.55520000  0.53230000  0.14482000  1
  C  C475  1  0.55780000  0.65250000  0.40800000  1
  C  C476  1  0.55800000  0.64290000  0.04923000  1
  C  C477  1  0.55870000  0.10440000  0.43918000  1
  C  C478  1  0.56040000  0.72200000  0.34464000  1
  C  C479  1  0.56380000  0.98250000  0.18504000  1
  C  C480  1  0.56640000  0.61370000  0.96944000  1
  C  C481  1  0.56940000  0.76410000  0.32081000  1
  C  C482  1  0.56970000  0.56880000  0.98986000  1
  C  C483  1  0.57140000  0.17410000  0.08848000  1
  C  C484  1  0.57500000  0.14370000  0.41599000  1
  C  C485  1  0.57720000  0.44900000  0.43797000  1
  C  C486  1  0.58040000  0.06690000  0.00060000  1
  C  C487  1  0.58140000  0.13240000  0.06362000  1
  C  C488  1  0.58440000  0.11310000  0.98128000  1
  C  C489  1  0.58450000  0.49210000  0.16532000  1
  C  C490  1  0.58680000  0.91720000  0.46194000  1
  C  C491  1  0.59070000  0.21960000  0.35853000  1
  C  C492  1  0.59280000  0.94250000  0.49521000  1
  C  C493  1  0.59590000  0.45710000  0.50080000  1
  C  C494  1  0.59880000  0.57360000  0.13342000  1
  C  C495  1  0.60360000  0.05680000  0.15115000  1
  C  C496  1  0.60770000  0.26260000  0.33711000  1
  C  C497  1  0.60870000  0.62080000  0.94044000  1
  C  C498  1  0.61010000  0.43170000  0.46894000  1
  C  C499  1  0.61110000  0.22310000  0.21420000  1
  C  C500  1  0.61480000  0.52670000  0.97933000  1
  C  C501  1  0.61720000  0.83660000  0.42450000  1
  C  C502  1  0.62300000  0.02480000  0.99007000  1
  C  C503  1  0.62550000  0.98580000  0.20624000  1
  C  C504  1  0.62670000  0.86650000  0.45462000  1
  C  C505  1  0.62870000  0.17810000  0.19428000  1
  C  C506  1  0.62890000  0.11790000  0.95279000  1
  C  C507  1  0.62980000  0.74820000  0.18104000  1
  C  C508  1  0.64240000  0.30030000  0.24917000  1
  C  C509  1  0.64680000  0.71090000  0.15512000  1
  C  C510  1  0.64960000  0.79580000  0.23681000  1
  C  C511  1  0.65550000  0.58110000  0.92898000  1
  C  C512  1  0.65710000  0.79160000  0.42050000  1
  C  C513  1  0.65750000  0.49320000  0.17443000  1
  C  C514  1  0.65760000  0.34730000  0.43960000  1
  C  C515  1  0.65840000  0.38450000  0.46902000  1
  C  C516  1  0.65910000  0.53230000  0.94976000  1
  C  C517  1  0.66140000  0.25440000  0.22783000  1
  C  C518  1  0.66410000  0.05960000  0.17287000  1
  C  C519  1  0.66650000  0.02940000  0.96056000  1
  C  C520  1  0.67080000  0.75440000  0.21167000  1
  C  C521  1  0.67180000  0.57480000  0.14252000  1
  C  C522  1  0.67280000  0.07600000  0.94175000  1
  C  C523  1  0.67560000  0.02530000  0.19971000  1
  C  C524  1  0.67710000  0.84890000  0.47930000  1
  C  C525  1  0.68570000  0.95350000  0.37172000  1
  C  C526  1  0.68780000  0.62640000  0.87213000  1
  C  C527  1  0.69840000  0.16470000  0.18959000  1
  C  C528  1  0.69930000  0.44120000  0.36048000  1
  C  C529  1  0.70030000  0.58490000  0.89586000  1
  C  C530  1  0.70060000  0.30240000  0.43766000  1
  C  C531  1  0.70110000  0.53450000  0.16303000  1
  C  C532  1  0.70280000  0.11750000  0.88342000  1
  C  C533  1  0.70440000  0.37230000  0.49452000  1
  C  C534  1  0.70570000  0.67800000  0.16132000  1
  C  C535  1  0.71100000  0.79950000  0.47234000  1
  C  C536  1  0.71500000  0.07900000  0.90972000  1
  C  C537  1  0.72390000  0.95710000  0.40335000  1
  C  C538  1  0.73270000  0.24340000  0.22156000  1
  C  C539  1  0.73270000  0.72170000  0.21632000  1
  C  C540  1  0.73930000  0.63340000  0.84473000  1
  C  C541  1  0.74460000  0.44990000  0.38850000  1
  C  C542  1  0.74610000  0.80280000  0.70141000  1
  C  C543  1  0.74830000  0.68120000  0.19107000  1
  C  C544  1  0.74910000  0.32330000  0.49130000  1
  C  C545  1  0.74970000  0.11670000  0.85126000  1
  C  C546  1  0.75030000  0.88330000  0.35126000  1
  C  C547  1  0.75090000  0.67670000  0.99130000  1
  C  C548  1  0.75170000  0.31880000  0.69107000  1
  C  C549  1  0.75390000  0.19720000  0.20141000  1
  C  C550  1  0.75540000  0.55010000  0.88850000  1
  C  C551  1  0.76070000  0.36660000  0.34473000  1
  C  C552  1  0.76730000  0.27830000  0.71632000  1
  C  C553  1  0.76730000  0.75660000  0.72156000  1
  C  C554  1  0.77610000  0.04290000  0.90335000  1
  C  C555  1  0.78500000  0.92100000  0.40972000  1
  C  C556  1  0.78900000  0.20050000  0.97234000  1
  C  C557  1  0.79430000  0.32200000  0.66132000  1
  C  C558  1  0.79560000  0.62770000  0.99452000  1
  C  C559  1  0.79720000  0.88250000  0.38342000  1
  C  C560  1  0.79890000  0.46550000  0.66303000  1
  C  C561  1  0.79940000  0.69760000  0.93766000  1
  C  C562  1  0.79970000  0.41510000  0.39586000  1
  C  C563  1  0.80070000  0.55880000  0.86048000  1
  C  C564  1  0.80160000  0.83530000  0.68959000  1
  C  C565  1  0.81220000  0.37360000  0.37213000  1
  C  C566  1  0.81430000  0.04650000  0.87172000  1
  C  C567  1  0.82290000  0.15110000  0.97930000  1
  C  C568  1  0.82440000  0.97470000  0.69971000  1
  C  C569  1  0.82720000  0.92400000  0.44175000  1
  C  C570  1  0.82820000  0.42520000  0.64252000  1
  C  C571  1  0.82920000  0.24560000  0.71167000  1
  C  C572  1  0.83350000  0.97060000  0.46056000  1
  C  C573  1  0.83590000  0.94040000  0.67287000  1
  C  C574  1  0.83860000  0.74560000  0.72783000  1
  C  C575  1  0.84090000  0.46770000  0.44976000  1
  C  C576  1  0.84160000  0.61550000  0.96902000  1
  C  C577  1  0.84240000  0.65270000  0.93960000  1
  C  C578  1  0.84250000  0.50680000  0.67443000  1
  C  C579  1  0.84290000  0.20840000  0.92050000  1
  C  C580  1  0.84450000  0.41890000  0.42898000  1
  C  C581  1  0.85040000  0.20420000  0.73681000  1
  C  C582  1  0.85320000  0.28910000  0.65512000  1
  C  C583  1  0.85760000  0.69970000  0.74917000  1
  C  C584  1  0.87020000  0.25180000  0.68104000  1
  C  C585  1  0.87110000  0.88210000  0.45279000  1
  C  C586  1  0.87130000  0.82190000  0.69428000  1
  C  C587  1  0.87330000  0.13350000  0.95462000  1
  C  C588  1  0.87450000  0.01420000  0.70624000  1
  C  C589  1  0.87700000  0.97520000  0.49007000  1
  C  C590  1  0.88280000  0.16340000  0.92450000  1
  C  C591  1  0.88520000  0.47330000  0.47933000  1
  C  C592  1  0.88890000  0.77690000  0.71420000  1
  C  C593  1  0.88990000  0.56830000  0.96894000  1
  C  C594  1  0.89130000  0.37920000  0.44044000  1
  C  C595  1  0.89230000  0.73740000  0.83711000  1
  C  C596  1  0.89640000  0.94320000  0.65115000  1
  C  C597  1  0.90120000  0.42640000  0.63342000  1
  C  C598  1  0.90410000  0.54290000  0.00080000  1
  C  C599  1  0.90720000  0.05750000  0.99521000  1
  C  C600  1  0.90930000  0.78040000  0.85853000  1
  C  C601  1  0.91320000  0.08280000  0.96194000  1
  C  C602  1  0.91550000  0.50790000  0.66532000  1
  C  C603  1  0.91560000  0.88690000  0.48128000  1
  C  C604  1  0.91860000  0.86760000  0.56362000  1
  C  C605  1  0.91960000  0.93310000  0.50060000  1
  C  C606  1  0.92280000  0.55100000  0.93797000  1
  C  C607  1  0.92500000  0.85630000  0.91599000  1
  C  C608  1  0.92860000  0.82590000  0.58848000  1
  C  C609  1  0.93030000  0.43120000  0.48986000  1
  C  C610  1  0.93060000  0.23590000  0.82081000  1
  C  C611  1  0.93360000  0.38630000  0.46944000  1
  C  C612  1  0.93620000  0.01750000  0.68504000  1
  C  C613  1  0.93960000  0.27800000  0.84464000  1
  C  C614  1  0.94130000  0.89560000  0.93918000  1
  C  C615  1  0.94200000  0.35710000  0.54923000  1
  C  C616  1  0.94220000  0.34750000  0.90800000  1
  C  C617  1  0.94480000  0.46770000  0.64482000  1
  C  C618  1  0.94750000  0.01060000  0.00141000  1
  C  C619  1  0.95130000  0.50020000  0.00170000  1
  C  C620  1  0.95240000  0.38790000  0.93183000  1
  C  C621  1  0.95250000  0.98100000  0.65761000  1
  C  C622  1  0.95510000  0.06070000  0.93655000  1
  C  C623  1  0.95860000  0.77300000  0.88580000  1
  C  C624  1  0.96070000  0.31500000  0.56991000  1
  C  C625  1  0.96170000  0.55160000  0.67684000  1
  C  C626  1  0.96430000  0.72960000  0.62888000  1
  C  C627  1  0.97000000  0.50830000  0.93887000  1
  C  C628  1  0.97070000  0.68490000  0.86521000  1
  C  C629  1  0.97370000  0.81390000  0.91087000  1
  C  C630  1  0.97630000  0.68970000  0.65514000  1
  C  C631  1  0.97880000  0.89660000  0.55360000  1
  C  C632  1  0.98430000  0.48290000  0.97073000  1
  C  C633  1  0.98820000  0.72070000  0.88860000  1
  C  C634  1  0.98860000  0.98990000  0.97540000  1
  C  C635  1  0.99280000  0.05930000  0.69375000  1
  C  C636  1  0.99330000  0.39660000  0.54198000  1
  C  C637  1  0.99380000  0.27270000  0.87035000  1
  C  C638  1  0.99750000  0.01500000  0.94350000  1
  C  C639  1  0.99910000  0.81600000  0.60386000  1
  S  S640  1  0.22735000  0.38967000  0.83592000  1
  S  S641  1  0.22739000  0.87067000  0.86932000  1
  S  S642  1  0.27261000  0.12933000  0.36932000  1
  S  S643  1  0.27265000  0.61033000  0.33592000  1
  S  S644  1  0.72735000  0.11033000  0.16408000  1
  S  S645  1  0.72739000  0.62933000  0.13068000  1
  S  S646  1  0.77261000  0.37067000  0.63068000  1
  S  S647  1  0.77265000  0.88967000  0.66408000  1
  N  N648  1  0.02300000  0.94060000  0.98066000  1
  N  N649  1  0.02690000  0.69357000  0.68054000  1
  N  N650  1  0.03250000  0.43840000  0.97125000  1
  N  N651  1  0.07650000  0.19011000  0.66156000  1
  N  N652  1  0.19840000  0.58330000  0.65237000  1
  N  N653  1  0.20350000  0.72540000  0.55449000  1
  N  N654  1  0.20840000  0.09880000  0.66315000  1
  N  N655  1  0.24330000  0.20880000  0.53642000  1
  N  N656  1  0.25670000  0.79120000  0.03642000  1
  N  N657  1  0.29160000  0.90120000  0.16315000  1
  N  N658  1  0.29650000  0.27460000  0.05449000  1
  N  N659  1  0.30160000  0.41670000  0.15237000  1
  N  N660  1  0.42350000  0.80989000  0.16156000  1
  N  N661  1  0.46750000  0.56160000  0.47125000  1
  N  N662  1  0.47310000  0.30643000  0.18054000  1
  N  N663  1  0.47700000  0.05940000  0.48066000  1
  N  N664  1  0.52300000  0.55940000  0.01934000  1
  N  N665  1  0.52690000  0.80643000  0.31946000  1
  N  N666  1  0.53250000  0.06160000  0.02875000  1
  N  N667  1  0.57650000  0.30989000  0.33844000  1
  N  N668  1  0.69840000  0.91670000  0.34763000  1
  N  N669  1  0.70350000  0.77460000  0.44551000  1
  N  N670  1  0.70840000  0.40120000  0.33685000  1
  N  N671  1  0.74330000  0.29120000  0.46358000  1
  N  N672  1  0.75670000  0.70880000  0.96358000  1
  N  N673  1  0.79160000  0.59880000  0.83685000  1
  N  N674  1  0.79650000  0.22540000  0.94551000  1
  N  N675  1  0.80160000  0.08330000  0.84763000  1
  N  N676  1  0.92350000  0.69011000  0.83844000  1
  N  N677  1  0.96750000  0.93840000  0.52875000  1
  N  N678  1  0.97310000  0.19357000  0.81946000  1
  N  N679  1  0.97700000  0.44060000  0.51934000  1
  O  O680  1  0.00890000  0.58373000  0.77943000  1
  O  O681  1  0.02220000  0.55703000  0.66266000  1
  O  O682  1  0.04280000  0.06456000  0.66960000  1
  O  O683  1  0.05690000  0.08037000  0.79671000  1
  O  O684  1  0.07950000  0.18113000  0.75068000  1
  O  O685  1  0.08540000  0.69034000  0.76148000  1
  O  O686  1  0.18950000  0.18427000  0.72940000  1
  O  O687  1  0.19860000  0.11325000  0.36502000  1
  O  O688  1  0.20340000  0.69240000  0.74346000  1
  O  O689  1  0.20370000  0.85322000  0.90310000  1
  O  O690  1  0.20650000  0.59392000  0.32178000  1
  O  O691  1  0.22100000  0.37605000  0.87331000  1
  O  O692  1  0.27900000  0.62395000  0.37331000  1
  O  O693  1  0.29350000  0.40608000  0.82178000  1
  O  O694  1  0.29630000  0.14678000  0.40310000  1
  O  O695  1  0.29660000  0.30760000  0.24346000  1
  O  O696  1  0.30140000  0.88675000  0.86502000  1
  O  O697  1  0.31050000  0.81573000  0.22940000  1
  O  O698  1  0.41460000  0.30966000  0.26148000  1
  O  O699  1  0.42050000  0.81887000  0.25068000  1
  O  O700  1  0.44310000  0.91963000  0.29671000  1
  O  O701  1  0.45720000  0.93544000  0.16960000  1
  O  O702  1  0.47780000  0.44297000  0.16266000  1
  O  O703  1  0.49110000  0.41627000  0.27943000  1
  O  O704  1  0.50890000  0.91627000  0.22057000  1
  O  O705  1  0.52220000  0.94297000  0.33734000  1
  O  O706  1  0.54280000  0.43544000  0.33040000  1
  O  O707  1  0.55690000  0.41963000  0.20329000  1
  O  O708  1  0.57950000  0.31887000  0.24932000  1
  O  O709  1  0.58540000  0.80966000  0.23852000  1
  O  O710  1  0.68950000  0.31573000  0.27060000  1
  O  O711  1  0.69860000  0.38675000  0.63498000  1
  O  O712  1  0.70340000  0.80760000  0.25654000  1
  O  O713  1  0.70370000  0.64678000  0.09690000  1
  O  O714  1  0.70650000  0.90608000  0.67822000  1
  O  O715  1  0.72100000  0.12395000  0.12669000  1
  O  O716  1  0.77900000  0.87605000  0.62669000  1
  O  O717  1  0.79350000  0.09392000  0.17822000  1
  O  O718  1  0.79630000  0.35322000  0.59690000  1
  O  O719  1  0.79660000  0.19240000  0.75654000  1
  O  O720  1  0.80140000  0.61325000  0.13498000  1
  O  O721  1  0.81050000  0.68427000  0.77060000  1
  O  O722  1  0.91460000  0.19034000  0.73852000  1
  O  O723  1  0.92050000  0.68113000  0.74932000  1
  O  O724  1  0.94310000  0.58037000  0.70329000  1
  O  O725  1  0.95720000  0.56456000  0.83040000  1
  O  O726  1  0.97780000  0.05703000  0.83734000  1
  O  O727  1  0.99110000  0.08373000  0.72057000  1
