# generated using pymatgen
data_Ni5H22C16(N2O9)2
_symmetry_space_group_name_H-M   'P 1'
_cell_length_a   11.70600000
_cell_length_b   18.18600000
_cell_length_c   18.18600000
_cell_angle_alpha   90.00000000
_cell_angle_beta   90.00000000
_cell_angle_gamma   90.00000000
_symmetry_Int_Tables_number   1
_chemical_formula_structural   Ni5H22C16(N2O9)2
_chemical_formula_sum   'Ni20 H88 C64 N16 O72'
_cell_volume   3871.53235678
_cell_formula_units_Z   4
loop_
 _symmetry_equiv_pos_site_id
 _symmetry_equiv_pos_as_xyz
  1  'x, y, z'
loop_
 _atom_site_type_symbol
 _atom_site_label
 _atom_site_symmetry_multiplicity
 _atom_site_fract_x
 _atom_site_fract_y
 _atom_site_fract_z
 _atom_site_occupancy
  Ni  Ni0  1  0.00000000  0.74440000  0.74440000  1
  Ni  Ni1  1  0.06400000  0.87576000  0.59310000  1
  Ni  Ni2  1  0.08910000  0.04289000  0.56060000  1
  Ni  Ni3  1  0.16090000  0.54289000  0.93940000  1
  Ni  Ni4  1  0.18600000  0.37576000  0.90690000  1
  Ni  Ni5  1  0.25000000  0.24440000  0.75560000  1
  Ni  Ni6  1  0.31400000  0.09310000  0.62424000  1
  Ni  Ni7  1  0.33910000  0.06060000  0.45711000  1
  Ni  Ni8  1  0.41090000  0.43940000  0.95711000  1
  Ni  Ni9  1  0.43600000  0.40690000  0.12424000  1
  Ni  Ni10  1  0.50000000  0.25560000  0.25560000  1
  Ni  Ni11  1  0.56400000  0.12424000  0.40690000  1
  Ni  Ni12  1  0.58910000  0.95711000  0.43940000  1
  Ni  Ni13  1  0.66090000  0.45711000  0.06060000  1
  Ni  Ni14  1  0.68600000  0.62424000  0.09310000  1
  Ni  Ni15  1  0.75000000  0.75560000  0.24440000  1
  Ni  Ni16  1  0.81400000  0.90690000  0.37576000  1
  Ni  Ni17  1  0.83910000  0.93940000  0.54289000  1
  Ni  Ni18  1  0.91090000  0.56060000  0.04289000  1
  Ni  Ni19  1  0.93600000  0.59310000  0.87576000  1
  H  H20  1  0.01400000  0.65120000  0.25460000  1
  H  H21  1  0.02170000  0.06820000  0.32660000  1
  H  H22  1  0.03490000  0.65540000  0.97810000  1
  H  H23  1  0.03780000  0.28910000  0.95650000  1
  H  H24  1  0.06710000  0.35100000  0.12780000  1
  H  H25  1  0.08390000  0.76330000  0.26470000  1
  H  H26  1  0.08720000  0.33270000  0.73910000  1
  H  H27  1  0.09660000  0.73540000  0.18340000  1
  H  H28  1  0.10890000  0.74590000  0.55590000  1
  H  H29  1  0.10900000  0.82330000  0.83330000  1
  H  H30  1  0.11080000  0.74680000  0.43500000  1
  H  H31  1  0.13920000  0.24680000  0.06500000  1
  H  H32  1  0.14100000  0.32330000  0.66666667  1
  H  H33  1  0.14110000  0.24590000  0.94410000  1
  H  H34  1  0.15340000  0.23540000  0.31660000  1
  H  H35  1  0.16280000  0.83270000  0.76090000  1
  H  H36  1  0.16610000  0.26330000  0.23530000  1
  H  H37  1  0.18290000  0.85100000  0.37220000  1
  H  H38  1  0.21220000  0.78910000  0.54350000  1
  H  H39  1  0.21510000  0.15540000  0.52190000  1
  H  H40  1  0.22830000  0.56820000  0.17340000  1
  H  H41  1  0.23600000  0.15120000  0.24540000  1
  H  H42  1  0.26400000  0.75460000  0.84880000  1
  H  H43  1  0.27170000  0.82660000  0.43180000  1
  H  H44  1  0.28490000  0.47810000  0.84460000  1
  H  H45  1  0.28780000  0.45650000  0.21090000  1
  H  H46  1  0.31710000  0.62780000  0.14900000  1
  H  H47  1  0.33390000  0.76470000  0.73670000  1
  H  H48  1  0.33720000  0.23910000  0.16730000  1
  H  H49  1  0.34660000  0.68340000  0.76460000  1
  H  H50  1  0.35890000  0.05590000  0.75410000  1
  H  H51  1  0.35900000  0.33333333  0.67670000  1
  H  H52  1  0.36080000  0.93500000  0.75320000  1
  H  H53  1  0.38920000  0.56500000  0.25320000  1
  H  H54  1  0.39100000  0.16670000  0.17670000  1
  H  H55  1  0.39110000  0.44410000  0.25410000  1
  H  H56  1  0.40340000  0.81660000  0.26460000  1
  H  H57  1  0.41280000  0.26090000  0.66730000  1
  H  H58  1  0.41610000  0.73530000  0.23670000  1
  H  H59  1  0.43290000  0.87220000  0.64900000  1
  H  H60  1  0.46220000  0.04350000  0.71090000  1
  H  H61  1  0.46510000  0.02190000  0.34460000  1
  H  H62  1  0.47830000  0.67340000  0.93180000  1
  H  H63  1  0.48600000  0.74540000  0.34880000  1
  H  H64  1  0.51400000  0.34880000  0.74540000  1
  H  H65  1  0.52170000  0.93180000  0.67340000  1
  H  H66  1  0.53490000  0.34460000  0.02190000  1
  H  H67  1  0.53780000  0.71090000  0.04350000  1
  H  H68  1  0.56710000  0.64900000  0.87220000  1
  H  H69  1  0.58390000  0.23670000  0.73530000  1
  H  H70  1  0.58720000  0.66730000  0.26090000  1
  H  H71  1  0.59660000  0.26460000  0.81660000  1
  H  H72  1  0.60890000  0.25410000  0.44410000  1
  H  H73  1  0.60900000  0.17670000  0.16670000  1
  H  H74  1  0.61080000  0.25320000  0.56500000  1
  H  H75  1  0.63920000  0.75320000  0.93500000  1
  H  H76  1  0.64100000  0.67670000  0.33333333  1
  H  H77  1  0.64110000  0.75410000  0.05590000  1
  H  H78  1  0.65340000  0.76460000  0.68340000  1
  H  H79  1  0.66280000  0.16730000  0.23910000  1
  H  H80  1  0.66610000  0.73670000  0.76470000  1
  H  H81  1  0.68290000  0.14900000  0.62780000  1
  H  H82  1  0.71220000  0.21090000  0.45650000  1
  H  H83  1  0.71510000  0.84460000  0.47810000  1
  H  H84  1  0.72830000  0.43180000  0.82660000  1
  H  H85  1  0.73600000  0.84880000  0.75460000  1
  H  H86  1  0.76400000  0.24540000  0.15120000  1
  H  H87  1  0.77170000  0.17340000  0.56820000  1
  H  H88  1  0.78490000  0.52190000  0.15540000  1
  H  H89  1  0.78780000  0.54350000  0.78910000  1
  H  H90  1  0.81710000  0.37220000  0.85100000  1
  H  H91  1  0.83390000  0.23530000  0.26330000  1
  H  H92  1  0.83720000  0.76090000  0.83270000  1
  H  H93  1  0.84660000  0.31660000  0.23540000  1
  H  H94  1  0.85890000  0.94410000  0.24590000  1
  H  H95  1  0.85900000  0.66666667  0.32330000  1
  H  H96  1  0.86080000  0.06500000  0.24680000  1
  H  H97  1  0.88920000  0.43500000  0.74680000  1
  H  H98  1  0.89100000  0.83330000  0.82330000  1
  H  H99  1  0.89110000  0.55590000  0.74590000  1
  H  H100  1  0.90340000  0.18340000  0.73540000  1
  H  H101  1  0.91280000  0.73910000  0.33270000  1
  H  H102  1  0.91610000  0.26470000  0.76330000  1
  H  H103  1  0.93290000  0.12780000  0.35100000  1
  H  H104  1  0.96220000  0.95650000  0.28910000  1
  H  H105  1  0.96510000  0.97810000  0.65540000  1
  H  H106  1  0.97830000  0.32660000  0.06820000  1
  H  H107  1  0.98600000  0.25460000  0.65120000  1
  C  C108  1  0.00900000  0.44800000  0.82700000  1
  C  C109  1  0.02100000  0.19500000  0.81500000  1
  C  C110  1  0.03600000  0.23670000  0.69100000  1
  C  C111  1  0.04200000  0.75480000  0.21980000  1
  C  C112  1  0.05400000  0.34770000  0.07530000  1
  C  C113  1  0.05500000  0.42430000  0.04320000  1
  C  C114  1  0.10000000  0.17370000  0.65940000  1
  C  C115  1  0.10600000  0.79510000  0.45870000  1
  C  C116  1  0.14400000  0.29510000  0.04130000  1
  C  C117  1  0.15000000  0.67370000  0.84060000  1
  C  C118  1  0.19500000  0.92430000  0.45680000  1
  C  C119  1  0.19600000  0.84770000  0.42470000  1
  C  C120  1  0.20800000  0.25480000  0.28020000  1
  C  C121  1  0.21400000  0.73670000  0.80900000  1
  C  C122  1  0.22900000  0.69500000  0.68500000  1
  C  C123  1  0.24100000  0.94800000  0.67300000  1
  C  C124  1  0.25900000  0.32700000  0.05200000  1
  C  C125  1  0.27100000  0.31500000  0.30500000  1
  C  C126  1  0.28600000  0.19100000  0.26330000  1
  C  C127  1  0.29200000  0.71980000  0.74520000  1
  C  C128  1  0.30400000  0.57530000  0.15230000  1
  C  C129  1  0.30500000  0.54320000  0.07570000  1
  C  C130  1  0.35000000  0.15940000  0.32630000  1
  C  C131  1  0.35600000  0.95870000  0.70490000  1
  C  C132  1  0.39400000  0.54130000  0.20490000  1
  C  C133  1  0.40000000  0.34060000  0.82630000  1
  C  C134  1  0.44500000  0.95680000  0.57570000  1
  C  C135  1  0.44600000  0.92470000  0.65230000  1
  C  C136  1  0.45800000  0.78020000  0.24520000  1
  C  C137  1  0.46400000  0.30900000  0.76330000  1
  C  C138  1  0.47900000  0.18500000  0.80500000  1
  C  C139  1  0.49100000  0.17300000  0.55200000  1
  C  C140  1  0.50900000  0.55200000  0.17300000  1
  C  C141  1  0.52100000  0.80500000  0.18500000  1
  C  C142  1  0.53600000  0.76330000  0.30900000  1
  C  C143  1  0.54200000  0.24520000  0.78020000  1
  C  C144  1  0.55400000  0.65230000  0.92470000  1
  C  C145  1  0.55500000  0.57570000  0.95680000  1
  C  C146  1  0.60000000  0.82630000  0.34060000  1
  C  C147  1  0.60600000  0.20490000  0.54130000  1
  C  C148  1  0.64400000  0.70490000  0.95870000  1
  C  C149  1  0.65000000  0.32630000  0.15940000  1
  C  C150  1  0.69500000  0.07570000  0.54320000  1
  C  C151  1  0.69600000  0.15230000  0.57530000  1
  C  C152  1  0.70800000  0.74520000  0.71980000  1
  C  C153  1  0.71400000  0.26330000  0.19100000  1
  C  C154  1  0.72900000  0.30500000  0.31500000  1
  C  C155  1  0.74100000  0.05200000  0.32700000  1
  C  C156  1  0.75900000  0.67300000  0.94800000  1
  C  C157  1  0.77100000  0.68500000  0.69500000  1
  C  C158  1  0.78600000  0.80900000  0.73670000  1
  C  C159  1  0.79200000  0.28020000  0.25480000  1
  C  C160  1  0.80400000  0.42470000  0.84770000  1
  C  C161  1  0.80500000  0.45680000  0.92430000  1
  C  C162  1  0.85000000  0.84060000  0.67370000  1
  C  C163  1  0.85600000  0.04130000  0.29510000  1
  C  C164  1  0.89400000  0.45870000  0.79510000  1
  C  C165  1  0.90000000  0.65940000  0.17370000  1
  C  C166  1  0.94500000  0.04320000  0.42430000  1
  C  C167  1  0.94600000  0.07530000  0.34770000  1
  C  C168  1  0.95800000  0.21980000  0.75480000  1
  C  C169  1  0.96400000  0.69100000  0.23670000  1
  C  C170  1  0.97900000  0.81500000  0.19500000  1
  C  C171  1  0.99100000  0.82700000  0.44800000  1
  N  N172  1  0.11410000  0.28860000  0.96220000  1
  N  N173  1  0.11900000  0.30000000  0.70790000  1
  N  N174  1  0.13100000  0.80000000  0.79210000  1
  N  N175  1  0.13590000  0.78860000  0.53780000  1
  N  N176  1  0.36410000  0.46220000  0.21140000  1
  N  N177  1  0.36900000  0.20790000  0.20000000  1
  N  N178  1  0.38100000  0.29210000  0.70000000  1
  N  N179  1  0.38590000  0.03780000  0.71140000  1
  N  N180  1  0.61410000  0.71140000  0.03780000  1
  N  N181  1  0.61900000  0.70000000  0.29210000  1
  N  N182  1  0.63100000  0.20000000  0.20790000  1
  N  N183  1  0.63590000  0.21140000  0.46220000  1
  N  N184  1  0.86410000  0.53780000  0.78860000  1
  N  N185  1  0.86900000  0.79210000  0.80000000  1
  N  N186  1  0.88100000  0.70790000  0.30000000  1
  N  N187  1  0.88590000  0.96220000  0.28860000  1
  O  O188  1  0.00170000  0.08130000  0.47210000  1
  O  O189  1  0.02320000  0.60230000  0.97070000  1
  O  O190  1  0.03200000  0.86600000  0.15500000  1
  O  O191  1  0.04060000  0.13110000  0.62090000  1
  O  O192  1  0.04390000  0.67170000  0.82450000  1
  O  O193  1  0.05460000  0.51390000  0.85140000  1
  O  O194  1  0.05830000  0.39120000  0.83550000  1
  O  O195  1  0.10310000  0.44320000  0.98500000  1
  O  O196  1  0.11860000  0.69590000  0.68010000  1
  O  O197  1  0.13140000  0.19590000  0.81990000  1
  O  O198  1  0.14690000  0.94320000  0.51500000  1
  O  O199  1  0.19170000  0.89120000  0.66450000  1
  O  O200  1  0.19540000  0.01390000  0.64860000  1
  O  O201  1  0.20610000  0.17170000  0.67550000  1
  O  O202  1  0.20940000  0.63110000  0.87910000  1
  O  O203  1  0.21800000  0.36600000  0.34500000  1
  O  O204  1  0.22680000  0.10230000  0.52930000  1
  O  O205  1  0.24830000  0.58130000  0.02790000  1
  O  O206  1  0.25170000  0.97210000  0.41870000  1
  O  O207  1  0.27320000  0.47070000  0.89770000  1
  O  O208  1  0.28200000  0.65500000  0.63400000  1
  O  O209  1  0.29060000  0.12090000  0.36890000  1
  O  O210  1  0.29390000  0.32450000  0.82830000  1
  O  O211  1  0.30460000  0.35140000  0.98610000  1
  O  O212  1  0.30830000  0.33550000  0.10880000  1
  O  O213  1  0.35310000  0.48500000  0.05680000  1
  O  O214  1  0.36860000  0.18010000  0.80410000  1
  O  O215  1  0.38140000  0.31990000  0.30410000  1
  O  O216  1  0.39690000  0.01500000  0.55680000  1
  O  O217  1  0.44170000  0.16450000  0.60880000  1
  O  O218  1  0.44540000  0.14860000  0.48610000  1
  O  O219  1  0.45610000  0.17550000  0.32830000  1
  O  O220  1  0.45940000  0.37910000  0.86890000  1
  O  O221  1  0.46800000  0.84500000  0.13400000  1
  O  O222  1  0.47680000  0.02930000  0.39770000  1
  O  O223  1  0.49830000  0.52790000  0.91870000  1
  O  O224  1  0.50170000  0.91870000  0.52790000  1
  O  O225  1  0.52320000  0.39770000  0.02930000  1
  O  O226  1  0.53200000  0.13400000  0.84500000  1
  O  O227  1  0.54060000  0.86890000  0.37910000  1
  O  O228  1  0.54390000  0.32830000  0.17550000  1
  O  O229  1  0.55460000  0.48610000  0.14860000  1
  O  O230  1  0.55830000  0.60880000  0.16450000  1
  O  O231  1  0.60310000  0.55680000  0.01500000  1
  O  O232  1  0.61860000  0.30410000  0.31990000  1
  O  O233  1  0.63140000  0.80410000  0.18010000  1
  O  O234  1  0.64690000  0.05680000  0.48500000  1
  O  O235  1  0.69170000  0.10880000  0.33550000  1
  O  O236  1  0.69540000  0.98610000  0.35140000  1
  O  O237  1  0.70610000  0.82830000  0.32450000  1
  O  O238  1  0.70940000  0.36890000  0.12090000  1
  O  O239  1  0.71800000  0.63400000  0.65500000  1
  O  O240  1  0.72680000  0.89770000  0.47070000  1
  O  O241  1  0.74830000  0.41870000  0.97210000  1
  O  O242  1  0.75170000  0.02790000  0.58130000  1
  O  O243  1  0.77320000  0.52930000  0.10230000  1
  O  O244  1  0.78200000  0.34500000  0.36600000  1
  O  O245  1  0.79060000  0.87910000  0.63110000  1
  O  O246  1  0.79390000  0.67550000  0.17170000  1
  O  O247  1  0.80460000  0.64860000  0.01390000  1
  O  O248  1  0.80830000  0.66450000  0.89120000  1
  O  O249  1  0.85310000  0.51500000  0.94320000  1
  O  O250  1  0.86860000  0.81990000  0.19590000  1
  O  O251  1  0.88140000  0.68010000  0.69590000  1
  O  O252  1  0.89690000  0.98500000  0.44320000  1
  O  O253  1  0.94170000  0.83550000  0.39120000  1
  O  O254  1  0.94540000  0.85140000  0.51390000  1
  O  O255  1  0.95610000  0.82450000  0.67170000  1
  O  O256  1  0.95940000  0.62090000  0.13110000  1
  O  O257  1  0.96800000  0.15500000  0.86600000  1
  O  O258  1  0.97680000  0.97070000  0.60230000  1
  O  O259  1  0.99830000  0.47210000  0.08130000  1
