# generated using pymatgen
data_Cu3MoH20C25S3IN5
_symmetry_space_group_name_H-M   'P 1'
_cell_length_a   15.01860000
_cell_length_b   15.01860000
_cell_length_c   17.94700000
_cell_angle_alpha   94.55080000
_cell_angle_beta   94.55080000
_cell_angle_gamma   90.28860000
_symmetry_Int_Tables_number   1
_chemical_formula_structural   Cu3MoH20C25S3IN5
_chemical_formula_sum   'Cu12 Mo4 H80 C100 S12 I4 N20'
_cell_volume   4022.35005208
_cell_formula_units_Z   4
loop_
 _symmetry_equiv_pos_site_id
 _symmetry_equiv_pos_as_xyz
  1  'x, y, z'
loop_
 _atom_site_type_symbol
 _atom_site_label
 _atom_site_symmetry_multiplicity
 _atom_site_fract_x
 _atom_site_fract_y
 _atom_site_fract_z
 _atom_site_occupancy
  Cu  Cu0  1  0.71707000  0.80791000  0.35919000  1
  Cu  Cu1  1  0.62768000  0.80214000  0.98750000  1
  Cu  Cu2  1  0.59421000  0.77035000  0.52747000  1
  Cu  Cu3  1  0.80791000  0.71707000  0.85919000  1
  Cu  Cu4  1  0.80214000  0.62768000  0.48750000  1
  Cu  Cu5  1  0.77035000  0.59421000  0.02747000  1
  Cu  Cu6  1  0.22965000  0.40579000  0.97253000  1
  Cu  Cu7  1  0.19786000  0.37232000  0.51250000  1
  Cu  Cu8  1  0.19209000  0.28293000  0.14081000  1
  Cu  Cu9  1  0.40579000  0.22965000  0.47253000  1
  Cu  Cu10  1  0.37232000  0.19786000  0.01250000  1
  Cu  Cu11  1  0.28293000  0.19209000  0.64081000  1
  Mo  Mo12  1  0.76698000  0.80460000  0.50470000  1
  Mo  Mo13  1  0.80460000  0.76698000  0.00470000  1
  Mo  Mo14  1  0.19540000  0.23302000  0.99530000  1
  Mo  Mo15  1  0.23302000  0.19540000  0.49530000  1
  H  H16  1  0.57560000  0.99980000  0.86420000  1
  H  H17  1  0.79900000  0.99120000  0.40080000  1
  H  H18  1  0.38500000  0.96640000  0.67500000  1
  H  H19  1  0.31360000  0.96220000  0.79640000  1
  H  H20  1  0.71710000  0.94530000  0.10170000  1
  H  H21  1  0.90050000  0.93930000  0.16910000  1
  H  H22  1  0.10290000  0.91670000  0.63460000  1
  H  H23  1  0.46760000  0.90900000  0.03740000  1
  H  H24  1  0.93930000  0.90050000  0.66910000  1
  H  H25  1  0.08330000  0.89710000  0.86540000  1
  H  H26  1  0.43310000  0.88810000  0.56980000  1
  H  H27  1  0.57770000  0.85110000  0.79640000  1
  H  H28  1  0.57780000  0.84420000  0.23590000  1
  H  H29  1  0.80110000  0.84170000  0.21300000  1
  H  H30  1  0.84170000  0.80110000  0.71300000  1
  H  H31  1  0.99120000  0.79900000  0.90080000  1
  H  H32  1  0.62220000  0.77940000  0.69150000  1
  H  H33  1  0.48030000  0.76750000  0.15010000  1
  H  H34  1  0.39940000  0.74760000  0.46360000  1
  H  H35  1  0.94530000  0.71710000  0.60170000  1
  H  H36  1  0.35030000  0.68730000  0.11610000  1
  H  H37  1  0.03780000  0.68640000  0.70360000  1
  H  H38  1  0.61980000  0.66180000  0.81320000  1
  H  H39  1  0.31270000  0.64970000  0.38390000  1
  H  H40  1  0.77940000  0.62220000  0.19150000  1
  H  H41  1  0.66180000  0.61980000  0.31320000  1
  H  H42  1  0.03360000  0.61500000  0.82500000  1
  H  H43  1  0.25240000  0.60060000  0.03640000  1
  H  H44  1  0.58300000  0.59620000  0.96710000  1
  H  H45  1  0.59620000  0.58300000  0.46710000  1
  H  H46  1  0.84420000  0.57780000  0.73590000  1
  H  H47  1  0.85110000  0.57770000  0.29640000  1
  H  H48  1  0.54190000  0.57710000  0.72300000  1
  H  H49  1  0.99980000  0.57560000  0.36420000  1
  H  H50  1  0.11190000  0.56690000  0.93020000  1
  H  H51  1  0.57710000  0.54190000  0.22300000  1
  H  H52  1  0.09100000  0.53240000  0.46260000  1
  H  H53  1  0.23250000  0.51970000  0.34990000  1
  H  H54  1  0.48400000  0.51960000  0.88710000  1
  H  H55  1  0.48040000  0.51600000  0.61290000  1
  H  H56  1  0.51960000  0.48400000  0.38710000  1
  H  H57  1  0.51600000  0.48040000  0.11290000  1
  H  H58  1  0.76750000  0.48030000  0.65010000  1
  H  H59  1  0.90900000  0.46760000  0.53740000  1
  H  H60  1  0.42290000  0.45810000  0.77700000  1
  H  H61  1  0.88810000  0.43310000  0.06980000  1
  H  H62  1  0.00020000  0.42440000  0.63580000  1
  H  H63  1  0.45810000  0.42290000  0.27700000  1
  H  H64  1  0.14890000  0.42230000  0.70360000  1
  H  H65  1  0.15580000  0.42220000  0.26410000  1
  H  H66  1  0.40380000  0.41700000  0.53290000  1
  H  H67  1  0.41700000  0.40380000  0.03290000  1
  H  H68  1  0.74760000  0.39940000  0.96360000  1
  H  H69  1  0.96640000  0.38500000  0.17500000  1
  H  H70  1  0.33820000  0.38020000  0.68680000  1
  H  H71  1  0.22060000  0.37780000  0.80850000  1
  H  H72  1  0.68730000  0.35030000  0.61610000  1
  H  H73  1  0.38020000  0.33820000  0.18680000  1
  H  H74  1  0.96220000  0.31360000  0.29640000  1
  H  H75  1  0.64970000  0.31270000  0.88390000  1
  H  H76  1  0.05470000  0.28290000  0.39830000  1
  H  H77  1  0.60060000  0.25240000  0.53640000  1
  H  H78  1  0.51970000  0.23250000  0.84990000  1
  H  H79  1  0.37780000  0.22060000  0.30850000  1
  H  H80  1  0.00880000  0.20100000  0.09920000  1
  H  H81  1  0.15830000  0.19890000  0.28700000  1
  H  H82  1  0.19890000  0.15830000  0.78700000  1
  H  H83  1  0.42220000  0.15580000  0.76410000  1
  H  H84  1  0.42230000  0.14890000  0.20360000  1
  H  H85  1  0.56690000  0.11190000  0.43020000  1
  H  H86  1  0.91670000  0.10290000  0.13460000  1
  H  H87  1  0.06070000  0.09950000  0.33090000  1
  H  H88  1  0.53240000  0.09100000  0.96260000  1
  H  H89  1  0.89710000  0.08330000  0.36540000  1
  H  H90  1  0.09950000  0.06070000  0.83090000  1
  H  H91  1  0.28290000  0.05470000  0.89830000  1
  H  H92  1  0.68640000  0.03780000  0.20360000  1
  H  H93  1  0.61500000  0.03360000  0.32500000  1
  H  H94  1  0.20100000  0.00880000  0.59920000  1
  H  H95  1  0.42440000  0.00020000  0.13580000  1
  C  C96  1  0.48480000  0.99000000  0.13070000  1
  C  C97  1  0.35980000  0.98740000  0.82890000  1
  C  C98  1  0.82000000  0.97980000  0.35360000  1
  C  C99  1  0.08730000  0.97750000  0.73770000  1
  C  C100  1  0.44990000  0.96970000  0.81620000  1
  C  C101  1  0.12210000  0.96550000  0.66720000  1
  C  C102  1  0.65750000  0.95670000  0.10910000  1
  C  C103  1  0.88130000  0.95010000  0.21700000  1
  C  C104  1  0.51130000  0.93570000  0.07160000  1
  C  C105  1  0.43310000  0.92790000  0.67970000  1
  C  C106  1  0.47400000  0.91640000  0.74810000  1
  C  C107  1  0.02250000  0.91270000  0.76230000  1
  C  C108  1  0.82020000  0.89220000  0.24350000  1
  C  C109  1  0.46360000  0.88160000  0.61620000  1
  C  C110  1  0.95010000  0.88130000  0.71700000  1
  C  C111  1  0.03450000  0.87790000  0.83280000  1
  C  C112  1  0.54700000  0.85980000  0.75050000  1
  C  C113  1  0.89220000  0.82020000  0.74350000  1
  C  C114  1  0.97980000  0.82000000  0.85360000  1
  C  C115  1  0.57390000  0.81770000  0.68750000  1
  C  C116  1  0.57710000  0.78210000  0.23360000  1
  C  C117  1  0.51730000  0.73630000  0.18270000  1
  C  C118  1  0.42400000  0.69340000  0.44760000  1
  C  C119  1  0.95670000  0.65750000  0.60910000  1
  C  C120  1  0.62770000  0.65030000  0.27800000  1
  C  C121  1  0.51200000  0.64540000  0.17950000  1
  C  C122  1  0.01260000  0.64020000  0.67110000  1
  C  C123  1  0.37070000  0.63470000  0.39980000  1
  C  C124  1  0.36530000  0.62930000  0.10020000  1
  C  C125  1  0.65030000  0.62770000  0.77800000  1
  C  C126  1  0.57370000  0.60390000  0.22710000  1
  C  C127  1  0.53870000  0.59750000  0.44910000  1
  C  C128  1  0.44810000  0.59390000  0.12400000  1
  C  C129  1  0.78210000  0.57710000  0.73360000  1
  C  C130  1  0.30660000  0.57600000  0.05240000  1
  C  C131  1  0.81770000  0.57390000  0.18750000  1
  C  C132  1  0.60390000  0.57370000  0.72710000  1
  C  C133  1  0.07210000  0.56690000  0.82030000  1
  C  C134  1  0.40610000  0.55190000  0.37600000  1
  C  C135  1  0.03030000  0.55010000  0.68380000  1
  C  C136  1  0.85980000  0.54700000  0.25050000  1
  C  C137  1  0.59750000  0.53870000  0.94910000  1
  C  C138  1  0.49240000  0.53720000  0.40230000  1
  C  C139  1  0.11840000  0.53640000  0.88380000  1
  C  C140  1  0.08360000  0.52600000  0.75190000  1
  C  C141  1  0.73630000  0.51730000  0.68270000  1
  C  C142  1  0.01000000  0.51520000  0.36930000  1
  C  C143  1  0.64540000  0.51200000  0.67950000  1
  C  C144  1  0.93570000  0.51130000  0.57160000  1
  C  C145  1  0.46280000  0.50760000  0.09770000  1
  C  C146  1  0.53720000  0.49240000  0.90230000  1
  C  C147  1  0.06430000  0.48870000  0.42840000  1
  C  C148  1  0.35460000  0.48800000  0.32050000  1
  C  C149  1  0.99000000  0.48480000  0.63070000  1
  C  C150  1  0.26370000  0.48270000  0.31730000  1
  C  C151  1  0.91640000  0.47400000  0.24810000  1
  C  C152  1  0.88160000  0.46360000  0.11620000  1
  C  C153  1  0.50760000  0.46280000  0.59770000  1
  C  C154  1  0.40250000  0.46130000  0.05090000  1
  C  C155  1  0.14020000  0.45300000  0.74950000  1
  C  C156  1  0.96970000  0.44990000  0.31620000  1
  C  C157  1  0.59390000  0.44810000  0.62400000  1
  C  C158  1  0.92790000  0.43310000  0.17970000  1
  C  C159  1  0.39610000  0.42630000  0.27290000  1
  C  C160  1  0.18230000  0.42610000  0.81250000  1
  C  C161  1  0.69340000  0.42400000  0.94760000  1
  C  C162  1  0.21790000  0.42290000  0.26640000  1
  C  C163  1  0.55190000  0.40610000  0.87600000  1
  C  C164  1  0.46130000  0.40250000  0.55090000  1
  C  C165  1  0.42630000  0.39610000  0.77290000  1
  C  C166  1  0.34970000  0.37230000  0.22200000  1
  C  C167  1  0.63470000  0.37070000  0.89980000  1
  C  C168  1  0.62930000  0.36530000  0.60020000  1
  C  C169  1  0.98740000  0.35980000  0.32890000  1
  C  C170  1  0.48800000  0.35460000  0.82050000  1
  C  C171  1  0.37230000  0.34970000  0.72200000  1
  C  C172  1  0.04330000  0.34250000  0.39090000  1
  C  C173  1  0.57600000  0.30660000  0.55240000  1
  C  C174  1  0.48270000  0.26370000  0.81730000  1
  C  C175  1  0.42290000  0.21790000  0.76640000  1
  C  C176  1  0.42610000  0.18230000  0.31250000  1
  C  C177  1  0.02020000  0.18000000  0.14640000  1
  C  C178  1  0.10780000  0.17980000  0.25650000  1
  C  C179  1  0.45300000  0.14020000  0.24950000  1
  C  C180  1  0.96550000  0.12210000  0.16720000  1
  C  C181  1  0.04990000  0.11870000  0.28300000  1
  C  C182  1  0.53640000  0.11840000  0.38380000  1
  C  C183  1  0.17980000  0.10780000  0.75650000  1
  C  C184  1  0.97750000  0.08730000  0.23770000  1
  C  C185  1  0.52600000  0.08360000  0.25190000  1
  C  C186  1  0.56690000  0.07210000  0.32030000  1
  C  C187  1  0.48870000  0.06430000  0.92840000  1
  C  C188  1  0.11870000  0.04990000  0.78300000  1
  C  C189  1  0.34250000  0.04330000  0.89090000  1
  C  C190  1  0.87790000  0.03450000  0.33280000  1
  C  C191  1  0.55010000  0.03030000  0.18380000  1
  C  C192  1  0.91270000  0.02250000  0.26230000  1
  C  C193  1  0.18000000  0.02020000  0.64640000  1
  C  C194  1  0.64020000  0.01260000  0.17110000  1
  C  C195  1  0.51520000  0.01000000  0.86930000  1
  S  S196  1  0.64463000  0.87475000  0.45510000  1
  S  S197  1  0.73279000  0.83653000  0.91051000  1
  S  S198  1  0.83653000  0.73279000  0.41051000  1
  S  S199  1  0.69996000  0.71962000  0.07618000  1
  S  S200  1  0.71962000  0.69996000  0.57618000  1
  S  S201  1  0.87475000  0.64463000  0.95510000  1
  S  S202  1  0.12525000  0.35537000  0.04490000  1
  S  S203  1  0.28038000  0.30004000  0.42382000  1
  S  S204  1  0.30004000  0.28038000  0.92382000  1
  S  S205  1  0.16347000  0.26721000  0.58949000  1
  S  S206  1  0.26721000  0.16347000  0.08949000  1
  S  S207  1  0.35537000  0.12525000  0.54490000  1
  I  I208  1  0.48218000  0.75366000  0.92961000  1
  I  I209  1  0.24634000  0.51782000  0.57039000  1
  I  I210  1  0.75366000  0.48218000  0.42961000  1
  I  I211  1  0.51782000  0.24634000  0.07039000  1
  N  N212  1  0.59850000  0.91910000  0.06060000  1
  N  N213  1  0.78800000  0.90600000  0.31000000  1
  N  N214  1  0.53450000  0.82830000  0.61920000  1
  N  N215  1  0.90600000  0.78800000  0.81000000  1
  N  N216  1  0.63510000  0.74030000  0.28070000  1
  N  N217  1  0.50680000  0.67800000  0.47170000  1
  N  N218  1  0.74030000  0.63510000  0.78070000  1
  N  N219  1  0.91910000  0.59850000  0.56060000  1
  N  N220  1  0.82830000  0.53450000  0.11920000  1
  N  N221  1  0.67800000  0.50680000  0.97170000  1
  N  N222  1  0.32200000  0.49320000  0.02830000  1
  N  N223  1  0.17170000  0.46550000  0.88080000  1
  N  N224  1  0.08090000  0.40150000  0.43940000  1
  N  N225  1  0.25970000  0.36490000  0.21930000  1
  N  N226  1  0.49320000  0.32200000  0.52830000  1
  N  N227  1  0.36490000  0.25970000  0.71930000  1
  N  N228  1  0.09400000  0.21200000  0.19000000  1
  N  N229  1  0.46550000  0.17170000  0.38080000  1
  N  N230  1  0.21200000  0.09400000  0.69000000  1
  N  N231  1  0.40150000  0.08090000  0.93940000  1
