# generated using pymatgen
data_FeH12(C11N3)2
_symmetry_space_group_name_H-M   'P 1'
_cell_length_a   17.29260000
_cell_length_b   17.29260000
_cell_length_c   22.89620000
_cell_angle_alpha   90.00000000
_cell_angle_beta   90.00000000
_cell_angle_gamma   90.00000000
_symmetry_Int_Tables_number   1
_chemical_formula_structural   FeH12(C11N3)2
_chemical_formula_sum   'Fe8 H96 C176 N48'
_cell_volume   6846.74260875
_cell_formula_units_Z   8
loop_
 _symmetry_equiv_pos_site_id
 _symmetry_equiv_pos_as_xyz
  1  'x, y, z'
loop_
 _atom_site_type_symbol
 _atom_site_label
 _atom_site_symmetry_multiplicity
 _atom_site_fract_x
 _atom_site_fract_y
 _atom_site_fract_z
 _atom_site_occupancy
  Fe  Fe0  1  0.00000000  0.00000000  0.00000000  1
  Fe  Fe1  1  0.00000000  0.00000000  0.50000000  1
  Fe  Fe2  1  0.00000000  0.50000000  0.44844000  1
  Fe  Fe3  1  0.00000000  0.50000000  0.94844000  1
  Fe  Fe4  1  0.50000000  0.00000000  0.05156000  1
  Fe  Fe5  1  0.50000000  0.00000000  0.55156000  1
  Fe  Fe6  1  0.50000000  0.50000000  0.00000000  1
  Fe  Fe7  1  0.50000000  0.50000000  0.50000000  1
  H  H8  1  0.04900000  0.10210000  0.10420000  1
  H  H9  1  0.05370000  0.10390000  0.20560000  1
  H  H10  1  0.05520000  0.59930000  0.34410000  1
  H  H11  1  0.05650000  0.60240000  0.24340000  1
  H  H12  1  0.05960000  0.59590000  0.55360000  1
  H  H13  1  0.06180000  0.59990000  0.65450000  1
  H  H14  1  0.06750000  0.90870000  0.60530000  1
  H  H15  1  0.06820000  0.90440000  0.70500000  1
  H  H16  1  0.09130000  0.06750000  0.39470000  1
  H  H17  1  0.09560000  0.06820000  0.29500000  1
  H  H18  1  0.09590000  0.55960000  0.05360000  1
  H  H19  1  0.09930000  0.55520000  0.84410000  1
  H  H20  1  0.09990000  0.56180000  0.15450000  1
  H  H21  1  0.10210000  0.95100000  0.89580000  1
  H  H22  1  0.10240000  0.55650000  0.74340000  1
  H  H23  1  0.10390000  0.94630000  0.79440000  1
  H  H24  1  0.13690000  0.69150000  0.46800000  1
  H  H25  1  0.13940000  0.82360000  0.48180000  1
  H  H26  1  0.14010000  0.17840000  0.97820000  1
  H  H27  1  0.14020000  0.31090000  0.96140000  1
  H  H28  1  0.17640000  0.13940000  0.51820000  1
  H  H29  1  0.17840000  0.85990000  0.02180000  1
  H  H30  1  0.18910000  0.35980000  0.46140000  1
  H  H31  1  0.19150000  0.63690000  0.96800000  1
  H  H32  1  0.30850000  0.13690000  0.53200000  1
  H  H33  1  0.31090000  0.85980000  0.03860000  1
  H  H34  1  0.32160000  0.35990000  0.47820000  1
  H  H35  1  0.32360000  0.63940000  0.98180000  1
  H  H36  1  0.35980000  0.81090000  0.53860000  1
  H  H37  1  0.35990000  0.67840000  0.52180000  1
  H  H38  1  0.36060000  0.32360000  0.01820000  1
  H  H39  1  0.36310000  0.19150000  0.03200000  1
  H  H40  1  0.39610000  0.44630000  0.70560000  1
  H  H41  1  0.39760000  0.05650000  0.75660000  1
  H  H42  1  0.39790000  0.45100000  0.60420000  1
  H  H43  1  0.40010000  0.06180000  0.34550000  1
  H  H44  1  0.40070000  0.05520000  0.65590000  1
  H  H45  1  0.40410000  0.05960000  0.44640000  1
  H  H46  1  0.40440000  0.56820000  0.20500000  1
  H  H47  1  0.40870000  0.56750000  0.10530000  1
  H  H48  1  0.43180000  0.40440000  0.79500000  1
  H  H49  1  0.43250000  0.40870000  0.89470000  1
  H  H50  1  0.43820000  0.09990000  0.84550000  1
  H  H51  1  0.44040000  0.09590000  0.94640000  1
  H  H52  1  0.44350000  0.10240000  0.25660000  1
  H  H53  1  0.44480000  0.09930000  0.15590000  1
  H  H54  1  0.44630000  0.60390000  0.29440000  1
  H  H55  1  0.45100000  0.60210000  0.39580000  1
  H  H56  1  0.54900000  0.39790000  0.39580000  1
  H  H57  1  0.55370000  0.39610000  0.29440000  1
  H  H58  1  0.55520000  0.90070000  0.15590000  1
  H  H59  1  0.55650000  0.89760000  0.25660000  1
  H  H60  1  0.55960000  0.90410000  0.94640000  1
  H  H61  1  0.56180000  0.90010000  0.84550000  1
  H  H62  1  0.56750000  0.59130000  0.89470000  1
  H  H63  1  0.56820000  0.59560000  0.79500000  1
  H  H64  1  0.59130000  0.43250000  0.10530000  1
  H  H65  1  0.59560000  0.43180000  0.20500000  1
  H  H66  1  0.59590000  0.94040000  0.44640000  1
  H  H67  1  0.59930000  0.94480000  0.65590000  1
  H  H68  1  0.59990000  0.93820000  0.34550000  1
  H  H69  1  0.60210000  0.54900000  0.60420000  1
  H  H70  1  0.60240000  0.94350000  0.75660000  1
  H  H71  1  0.60390000  0.55370000  0.70560000  1
  H  H72  1  0.63690000  0.80850000  0.03200000  1
  H  H73  1  0.63940000  0.67640000  0.01820000  1
  H  H74  1  0.64010000  0.32160000  0.52180000  1
  H  H75  1  0.64020000  0.18910000  0.53860000  1
  H  H76  1  0.67640000  0.36060000  0.98180000  1
  H  H77  1  0.67840000  0.64010000  0.47820000  1
  H  H78  1  0.68910000  0.14020000  0.03860000  1
  H  H79  1  0.69150000  0.86310000  0.53200000  1
  H  H80  1  0.80850000  0.36310000  0.96800000  1
  H  H81  1  0.81090000  0.64020000  0.46140000  1
  H  H82  1  0.82160000  0.14010000  0.02180000  1
  H  H83  1  0.82360000  0.86060000  0.51820000  1
  H  H84  1  0.85980000  0.68910000  0.96140000  1
  H  H85  1  0.85990000  0.82160000  0.97820000  1
  H  H86  1  0.86060000  0.17640000  0.48180000  1
  H  H87  1  0.86310000  0.30850000  0.46800000  1
  H  H88  1  0.89610000  0.05370000  0.79440000  1
  H  H89  1  0.89760000  0.44350000  0.74340000  1
  H  H90  1  0.89790000  0.04900000  0.89580000  1
  H  H91  1  0.90010000  0.43820000  0.15450000  1
  H  H92  1  0.90070000  0.44480000  0.84410000  1
  H  H93  1  0.90410000  0.44040000  0.05360000  1
  H  H94  1  0.90440000  0.93180000  0.29500000  1
  H  H95  1  0.90870000  0.93250000  0.39470000  1
  H  H96  1  0.93180000  0.09560000  0.70500000  1
  H  H97  1  0.93250000  0.09130000  0.60530000  1
  H  H98  1  0.93820000  0.40010000  0.65450000  1
  H  H99  1  0.94040000  0.40410000  0.55360000  1
  H  H100  1  0.94350000  0.39760000  0.24340000  1
  H  H101  1  0.94480000  0.40070000  0.34410000  1
  H  H102  1  0.94630000  0.89610000  0.20560000  1
  H  H103  1  0.95100000  0.89790000  0.10420000  1
  C  C104  1  0.00000000  0.00000000  0.21762000  1
  C  C105  1  0.00000000  0.00000000  0.28213000  1
  C  C106  1  0.00000000  0.00000000  0.71787000  1
  C  C107  1  0.00000000  0.00000000  0.78238000  1
  C  C108  1  0.00000000  0.50000000  0.16692000  1
  C  C109  1  0.00000000  0.50000000  0.23099000  1
  C  C110  1  0.00000000  0.50000000  0.66692000  1
  C  C111  1  0.00000000  0.50000000  0.73099000  1
  C  C112  1  0.02891000  0.05929000  0.12536000  1
  C  C113  1  0.03107000  0.06107000  0.18604000  1
  C  C114  1  0.03230000  0.55790000  0.32302000  1
  C  C115  1  0.03299000  0.56003000  0.26293000  1
  C  C116  1  0.03462000  0.55568000  0.57461000  1
  C  C117  1  0.03626000  0.55860000  0.63498000  1
  C  C118  1  0.03899000  0.94667000  0.62616000  1
  C  C119  1  0.04022000  0.94396000  0.68544000  1
  C  C120  1  0.04233000  0.18313000  0.48916000  1
  C  C121  1  0.04317000  0.81715000  0.99105000  1
  C  C122  1  0.04680000  0.31838000  0.46251000  1
  C  C123  1  0.04827000  0.68097000  0.96483000  1
  C  C124  1  0.05333000  0.03899000  0.37384000  1
  C  C125  1  0.05568000  0.53462000  0.07461000  1
  C  C126  1  0.05604000  0.04022000  0.31456000  1
  C  C127  1  0.05790000  0.53230000  0.82302000  1
  C  C128  1  0.05860000  0.53626000  0.13498000  1
  C  C129  1  0.05929000  0.97109000  0.87464000  1
  C  C130  1  0.06003000  0.53299000  0.76293000  1
  C  C131  1  0.06107000  0.96893000  0.81396000  1
  C  C132  1  0.08375000  0.24932000  0.47789000  1
  C  C133  1  0.08525000  0.74865000  0.98309000  1
  C  C134  1  0.16801000  0.74920000  0.99330000  1
  C  C135  1  0.17015000  0.24946000  0.48717000  1
  C  C136  1  0.18097000  0.54827000  0.46483000  1
  C  C137  1  0.18162000  0.45320000  0.96251000  1
  C  C138  1  0.18285000  0.04317000  0.00895000  1
  C  C139  1  0.18293000  0.71521000  0.48195000  1
  C  C140  1  0.18313000  0.95767000  0.51084000  1
  C  C141  1  0.18385000  0.79374000  0.49096000  1
  C  C142  1  0.18561000  0.28645000  0.97578000  1
  C  C143  1  0.18588000  0.20705000  0.98585000  1
  C  C144  1  0.20626000  0.18385000  0.50904000  1
  C  C145  1  0.20705000  0.81412000  0.01415000  1
  C  C146  1  0.21355000  0.31439000  0.47578000  1
  C  C147  1  0.21521000  0.68293000  0.98195000  1
  C  C148  1  0.24865000  0.58525000  0.48309000  1
  C  C149  1  0.24920000  0.66801000  0.49330000  1
  C  C150  1  0.24932000  0.91625000  0.52211000  1
  C  C151  1  0.24946000  0.82985000  0.51283000  1
  C  C152  1  0.25054000  0.32985000  0.98717000  1
  C  C153  1  0.25068000  0.41625000  0.97789000  1
  C  C154  1  0.25080000  0.16801000  0.00670000  1
  C  C155  1  0.25135000  0.08525000  0.01691000  1
  C  C156  1  0.28479000  0.18293000  0.51805000  1
  C  C157  1  0.28645000  0.81439000  0.02422000  1
  C  C158  1  0.29295000  0.31412000  0.48585000  1
  C  C159  1  0.29374000  0.68385000  0.99096000  1
  C  C160  1  0.31412000  0.70705000  0.51415000  1
  C  C161  1  0.31439000  0.78645000  0.52422000  1
  C  C162  1  0.31615000  0.29374000  0.00904000  1
  C  C163  1  0.31687000  0.45767000  0.98916000  1
  C  C164  1  0.31707000  0.21521000  0.01805000  1
  C  C165  1  0.31715000  0.54317000  0.49105000  1
  C  C166  1  0.31838000  0.95320000  0.53749000  1
  C  C167  1  0.31903000  0.04827000  0.03517000  1
  C  C168  1  0.32985000  0.74946000  0.01283000  1
  C  C169  1  0.33199000  0.24920000  0.50670000  1
  C  C170  1  0.41475000  0.24865000  0.51691000  1
  C  C171  1  0.41625000  0.74932000  0.02211000  1
  C  C172  1  0.43893000  0.46893000  0.68604000  1
  C  C173  1  0.43997000  0.03299000  0.73707000  1
  C  C174  1  0.44071000  0.47109000  0.62536000  1
  C  C175  1  0.44140000  0.03626000  0.36502000  1
  C  C176  1  0.44210000  0.03230000  0.67698000  1
  C  C177  1  0.44396000  0.54022000  0.18544000  1
  C  C178  1  0.44432000  0.03462000  0.42539000  1
  C  C179  1  0.44667000  0.53899000  0.12616000  1
  C  C180  1  0.45173000  0.18097000  0.53517000  1
  C  C181  1  0.45320000  0.81838000  0.03749000  1
  C  C182  1  0.45683000  0.31715000  0.50895000  1
  C  C183  1  0.45767000  0.68313000  0.01084000  1
  C  C184  1  0.45978000  0.44396000  0.81456000  1
  C  C185  1  0.46101000  0.44667000  0.87384000  1
  C  C186  1  0.46374000  0.05860000  0.86502000  1
  C  C187  1  0.46538000  0.05568000  0.92539000  1
  C  C188  1  0.46701000  0.06003000  0.23707000  1
  C  C189  1  0.46770000  0.05790000  0.17698000  1
  C  C190  1  0.46893000  0.56107000  0.31396000  1
  C  C191  1  0.47109000  0.55929000  0.37464000  1
  C  C192  1  0.50000000  0.00000000  0.26901000  1
  C  C193  1  0.50000000  0.00000000  0.33308000  1
  C  C194  1  0.50000000  0.00000000  0.76901000  1
  C  C195  1  0.50000000  0.00000000  0.83308000  1
  C  C196  1  0.50000000  0.50000000  0.21787000  1
  C  C197  1  0.50000000  0.50000000  0.28238000  1
  C  C198  1  0.50000000  0.50000000  0.71762000  1
  C  C199  1  0.50000000  0.50000000  0.78213000  1
  C  C200  1  0.52891000  0.44071000  0.37464000  1
  C  C201  1  0.53107000  0.43893000  0.31396000  1
  C  C202  1  0.53230000  0.94210000  0.17698000  1
  C  C203  1  0.53299000  0.93997000  0.23707000  1
  C  C204  1  0.53462000  0.94432000  0.92539000  1
  C  C205  1  0.53626000  0.94140000  0.86502000  1
  C  C206  1  0.53899000  0.55333000  0.87384000  1
  C  C207  1  0.54022000  0.55604000  0.81456000  1
  C  C208  1  0.54233000  0.31687000  0.01084000  1
  C  C209  1  0.54317000  0.68285000  0.50895000  1
  C  C210  1  0.54680000  0.18162000  0.03749000  1
  C  C211  1  0.54827000  0.81903000  0.53517000  1
  C  C212  1  0.55333000  0.46101000  0.12616000  1
  C  C213  1  0.55568000  0.96538000  0.42539000  1
  C  C214  1  0.55604000  0.45978000  0.18544000  1
  C  C215  1  0.55790000  0.96770000  0.67698000  1
  C  C216  1  0.55860000  0.96374000  0.36502000  1
  C  C217  1  0.55929000  0.52891000  0.62536000  1
  C  C218  1  0.56003000  0.96701000  0.73707000  1
  C  C219  1  0.56107000  0.53107000  0.68604000  1
  C  C220  1  0.58375000  0.25068000  0.02211000  1
  C  C221  1  0.58525000  0.75135000  0.51691000  1
  C  C222  1  0.66801000  0.75080000  0.50670000  1
  C  C223  1  0.67015000  0.25054000  0.01283000  1
  C  C224  1  0.68097000  0.95173000  0.03517000  1
  C  C225  1  0.68162000  0.04680000  0.53749000  1
  C  C226  1  0.68285000  0.45683000  0.49105000  1
  C  C227  1  0.68293000  0.78479000  0.01805000  1
  C  C228  1  0.68313000  0.54233000  0.98916000  1
  C  C229  1  0.68385000  0.70626000  0.00904000  1
  C  C230  1  0.68561000  0.21355000  0.52422000  1
  C  C231  1  0.68588000  0.29295000  0.51415000  1
  C  C232  1  0.70626000  0.31615000  0.99096000  1
  C  C233  1  0.70705000  0.68588000  0.48585000  1
  C  C234  1  0.71355000  0.18561000  0.02422000  1
  C  C235  1  0.71521000  0.81707000  0.51805000  1
  C  C236  1  0.74865000  0.91475000  0.01691000  1
  C  C237  1  0.74920000  0.83199000  0.00670000  1
  C  C238  1  0.74932000  0.58375000  0.97789000  1
  C  C239  1  0.74946000  0.67015000  0.98717000  1
  C  C240  1  0.75054000  0.17015000  0.51283000  1
  C  C241  1  0.75068000  0.08375000  0.52211000  1
  C  C242  1  0.75080000  0.33199000  0.49330000  1
  C  C243  1  0.75135000  0.41475000  0.48309000  1
  C  C244  1  0.78479000  0.31707000  0.98195000  1
  C  C245  1  0.78645000  0.68561000  0.47578000  1
  C  C246  1  0.79295000  0.18588000  0.01415000  1
  C  C247  1  0.79374000  0.81615000  0.50904000  1
  C  C248  1  0.81412000  0.79295000  0.98585000  1
  C  C249  1  0.81439000  0.71355000  0.97578000  1
  C  C250  1  0.81615000  0.20626000  0.49096000  1
  C  C251  1  0.81687000  0.04233000  0.51084000  1
  C  C252  1  0.81707000  0.28479000  0.48195000  1
  C  C253  1  0.81715000  0.95683000  0.00895000  1
  C  C254  1  0.81838000  0.54680000  0.96251000  1
  C  C255  1  0.81903000  0.45173000  0.46483000  1
  C  C256  1  0.82985000  0.75054000  0.48717000  1
  C  C257  1  0.83199000  0.25080000  0.99330000  1
  C  C258  1  0.91475000  0.25135000  0.98309000  1
  C  C259  1  0.91625000  0.75068000  0.47789000  1
  C  C260  1  0.93893000  0.03107000  0.81396000  1
  C  C261  1  0.93997000  0.46701000  0.76293000  1
  C  C262  1  0.94071000  0.02891000  0.87464000  1
  C  C263  1  0.94140000  0.46374000  0.13498000  1
  C  C264  1  0.94210000  0.46770000  0.82302000  1
  C  C265  1  0.94396000  0.95978000  0.31456000  1
  C  C266  1  0.94432000  0.46538000  0.07461000  1
  C  C267  1  0.94667000  0.96101000  0.37384000  1
  C  C268  1  0.95173000  0.31903000  0.96483000  1
  C  C269  1  0.95320000  0.68162000  0.46251000  1
  C  C270  1  0.95683000  0.18285000  0.99105000  1
  C  C271  1  0.95767000  0.81687000  0.48916000  1
  C  C272  1  0.95978000  0.05604000  0.68544000  1
  C  C273  1  0.96101000  0.05333000  0.62616000  1
  C  C274  1  0.96374000  0.44140000  0.63498000  1
  C  C275  1  0.96538000  0.44432000  0.57461000  1
  C  C276  1  0.96701000  0.43997000  0.26293000  1
  C  C277  1  0.96770000  0.44210000  0.32302000  1
  C  C278  1  0.96893000  0.93893000  0.18604000  1
  C  C279  1  0.97109000  0.94071000  0.12536000  1
  N  N280  1  0.00000000  0.00000000  0.09527000  1
  N  N281  1  0.00000000  0.00000000  0.40400000  1
  N  N282  1  0.00000000  0.00000000  0.59600000  1
  N  N283  1  0.00000000  0.00000000  0.90473000  1
  N  N284  1  0.00000000  0.50000000  0.04405000  1
  N  N285  1  0.00000000  0.50000000  0.35368000  1
  N  N286  1  0.00000000  0.50000000  0.54405000  1
  N  N287  1  0.00000000  0.50000000  0.85368000  1
  N  N288  1  0.01431000  0.12315000  0.49929000  1
  N  N289  1  0.01536000  0.87685000  0.99877000  1
  N  N290  1  0.02148000  0.37833000  0.44930000  1
  N  N291  1  0.02357000  0.62214000  0.95011000  1
  N  N292  1  0.12167000  0.47852000  0.94930000  1
  N  N293  1  0.12214000  0.52357000  0.45011000  1
  N  N294  1  0.12315000  0.01536000  0.00123000  1
  N  N295  1  0.12315000  0.98569000  0.50071000  1
  N  N296  1  0.37685000  0.48569000  0.99929000  1
  N  N297  1  0.37685000  0.51536000  0.49877000  1
  N  N298  1  0.37786000  0.02357000  0.04989000  1
  N  N299  1  0.37833000  0.97852000  0.55070000  1
  N  N300  1  0.47643000  0.12214000  0.54989000  1
  N  N301  1  0.47852000  0.87833000  0.05070000  1
  N  N302  1  0.48464000  0.37685000  0.50123000  1
  N  N303  1  0.48569000  0.62315000  0.00071000  1
  N  N304  1  0.50000000  0.00000000  0.14632000  1
  N  N305  1  0.50000000  0.00000000  0.45595000  1
  N  N306  1  0.50000000  0.00000000  0.64632000  1
  N  N307  1  0.50000000  0.00000000  0.95595000  1
  N  N308  1  0.50000000  0.50000000  0.09600000  1
  N  N309  1  0.50000000  0.50000000  0.40473000  1
  N  N310  1  0.50000000  0.50000000  0.59527000  1
  N  N311  1  0.50000000  0.50000000  0.90400000  1
  N  N312  1  0.51431000  0.37685000  0.00071000  1
  N  N313  1  0.51536000  0.62315000  0.50123000  1
  N  N314  1  0.52148000  0.12167000  0.05070000  1
  N  N315  1  0.52357000  0.87786000  0.54989000  1
  N  N316  1  0.62167000  0.02148000  0.55070000  1
  N  N317  1  0.62214000  0.97643000  0.04989000  1
  N  N318  1  0.62315000  0.48464000  0.49877000  1
  N  N319  1  0.62315000  0.51431000  0.99929000  1
  N  N320  1  0.87685000  0.01431000  0.50071000  1
  N  N321  1  0.87685000  0.98464000  0.00123000  1
  N  N322  1  0.87786000  0.47643000  0.45011000  1
  N  N323  1  0.87833000  0.52148000  0.94930000  1
  N  N324  1  0.97643000  0.37786000  0.95011000  1
  N  N325  1  0.97852000  0.62167000  0.44930000  1
  N  N326  1  0.98464000  0.12315000  0.99877000  1
  N  N327  1  0.98569000  0.87685000  0.49929000  1
