# generated using pymatgen
data_KSmHC9NO8
_symmetry_space_group_name_H-M   'P 1'
_cell_length_a   6.75900000
_cell_length_b   13.97800000
_cell_length_c   14.26510000
_cell_angle_alpha   90.00000000
_cell_angle_beta   92.49630000
_cell_angle_gamma   90.00000000
_symmetry_Int_Tables_number   1
_chemical_formula_structural   KSmHC9NO8
_chemical_formula_sum   'K4 Sm4 H4 C36 N4 O32'
_cell_volume   1346.44921568
_cell_formula_units_Z   4
loop_
 _symmetry_equiv_pos_site_id
 _symmetry_equiv_pos_as_xyz
  1  'x, y, z'
loop_
 _atom_site_type_symbol
 _atom_site_label
 _atom_site_symmetry_multiplicity
 _atom_site_fract_x
 _atom_site_fract_y
 _atom_site_fract_z
 _atom_site_occupancy
  K  K0  1  0.20634000  0.19055000  0.75824000  1
  K  K1  1  0.29366000  0.69055000  0.74176000  1
  K  K2  1  0.70634000  0.30945000  0.25824000  1
  K  K3  1  0.79366000  0.80945000  0.24176000  1
  Sm  Sm4  1  0.23920000  0.74409000  0.06540000  1
  Sm  Sm5  1  0.26080000  0.24409000  0.43460000  1
  Sm  Sm6  1  0.73920000  0.75591000  0.56540000  1
  Sm  Sm7  1  0.76080000  0.25591000  0.93460000  1
  H  H8  1  0.24600000  0.30290000  0.12880000  1
  H  H9  1  0.25400000  0.80290000  0.37120000  1
  H  H10  1  0.74600000  0.19710000  0.62880000  1
  H  H11  1  0.75400000  0.69710000  0.87120000  1
  C  C12  1  0.17850000  0.60510000  0.25070000  1
  C  C13  1  0.21650000  0.53020000  0.17700000  1
  C  C14  1  0.22160000  0.38990000  0.29220000  1
  C  C15  1  0.22740000  0.43120000  0.19510000  1
  C  C16  1  0.23560000  0.83570000  0.55270000  1
  C  C17  1  0.24220000  0.37020000  0.11910000  1
  C  C18  1  0.24320000  0.05890000  0.57600000  1
  C  C19  1  0.24780000  0.50550000  0.01680000  1
  C  C20  1  0.24850000  0.90680000  0.47160000  1
  C  C21  1  0.25150000  0.40680000  0.02840000  1
  C  C22  1  0.25220000  0.00550000  0.48320000  1
  C  C23  1  0.25680000  0.55890000  0.92400000  1
  C  C24  1  0.25780000  0.87020000  0.38090000  1
  C  C25  1  0.26440000  0.33570000  0.94730000  1
  C  C26  1  0.27260000  0.93120000  0.30490000  1
  C  C27  1  0.27840000  0.88990000  0.20780000  1
  C  C28  1  0.28350000  0.03020000  0.32300000  1
  C  C29  1  0.32150000  0.10510000  0.24930000  1
  C  C30  1  0.67850000  0.89490000  0.75070000  1
  C  C31  1  0.71650000  0.96980000  0.67700000  1
  C  C32  1  0.72160000  0.11010000  0.79220000  1
  C  C33  1  0.72740000  0.06880000  0.69510000  1
  C  C34  1  0.73560000  0.66430000  0.05270000  1
  C  C35  1  0.74220000  0.12980000  0.61910000  1
  C  C36  1  0.74320000  0.44110000  0.07600000  1
  C  C37  1  0.74780000  0.99450000  0.51680000  1
  C  C38  1  0.74850000  0.59320000  0.97160000  1
  C  C39  1  0.75150000  0.09320000  0.52840000  1
  C  C40  1  0.75220000  0.49450000  0.98320000  1
  C  C41  1  0.75680000  0.94110000  0.42400000  1
  C  C42  1  0.75780000  0.62980000  0.88090000  1
  C  C43  1  0.76440000  0.16430000  0.44730000  1
  C  C44  1  0.77260000  0.56880000  0.80490000  1
  C  C45  1  0.77840000  0.61010000  0.70780000  1
  C  C46  1  0.78350000  0.46980000  0.82300000  1
  C  C47  1  0.82150000  0.39490000  0.74930000  1
  N  N48  1  0.22760000  0.56480000  0.08990000  1
  N  N49  1  0.27240000  0.06480000  0.41010000  1
  N  N50  1  0.72760000  0.93520000  0.58990000  1
  N  N51  1  0.77240000  0.43520000  0.91010000  1
  O  O52  1  0.07000000  0.35280000  0.31970000  1
  O  O53  1  0.07030000  0.81610000  0.58300000  1
  O  O54  1  0.10590000  0.29930000  0.91730000  1
  O  O55  1  0.11700000  0.88620000  0.15870000  1
  O  O56  1  0.12630000  0.57690000  0.32880000  1
  O  O57  1  0.20030000  0.69110000  0.22630000  1
  O  O58  1  0.23260000  0.01120000  0.64890000  1
  O  O59  1  0.24790000  0.14890000  0.57310000  1
  O  O60  1  0.25210000  0.64890000  0.92690000  1
  O  O61  1  0.26740000  0.51120000  0.85110000  1
  O  O62  1  0.29970000  0.19110000  0.27370000  1
  O  O63  1  0.37370000  0.07690000  0.17120000  1
  O  O64  1  0.38300000  0.38620000  0.34130000  1
  O  O65  1  0.39410000  0.79930000  0.58270000  1
  O  O66  1  0.42970000  0.31610000  0.91700000  1
  O  O67  1  0.43000000  0.85280000  0.18030000  1
  O  O68  1  0.57000000  0.14720000  0.81970000  1
  O  O69  1  0.57030000  0.68390000  0.08300000  1
  O  O70  1  0.60590000  0.20070000  0.41730000  1
  O  O71  1  0.61700000  0.61380000  0.65870000  1
  O  O72  1  0.62630000  0.92310000  0.82880000  1
  O  O73  1  0.70030000  0.80890000  0.72630000  1
  O  O74  1  0.73260000  0.48880000  0.14890000  1
  O  O75  1  0.74790000  0.35110000  0.07310000  1
  O  O76  1  0.75210000  0.85110000  0.42690000  1
  O  O77  1  0.76740000  0.98880000  0.35110000  1
  O  O78  1  0.79970000  0.30890000  0.77370000  1
  O  O79  1  0.87370000  0.42310000  0.67120000  1
  O  O80  1  0.88300000  0.11380000  0.84130000  1
  O  O81  1  0.89410000  0.70070000  0.08270000  1
  O  O82  1  0.92970000  0.18390000  0.41700000  1
  O  O83  1  0.93000000  0.64720000  0.68030000  1
