# generated using pymatgen
data_Co2H26C41N6O17
_symmetry_space_group_name_H-M   'P 1'
_cell_length_a   14.38100000
_cell_length_b   16.17300000
_cell_length_c   21.04900000
_cell_angle_alpha   89.88000000
_cell_angle_beta   89.88000000
_cell_angle_gamma   65.10000000
_symmetry_Int_Tables_number   1
_chemical_formula_structural   Co2H26C41N6O17
_chemical_formula_sum   'Co8 H104 C164 N24 O68'
_cell_volume   4440.56428941
_cell_formula_units_Z   4
loop_
 _symmetry_equiv_pos_site_id
 _symmetry_equiv_pos_as_xyz
  1  'x, y, z'
loop_
 _atom_site_type_symbol
 _atom_site_label
 _atom_site_symmetry_multiplicity
 _atom_site_fract_x
 _atom_site_fract_y
 _atom_site_fract_z
 _atom_site_occupancy
  Co  Co0  1  0.06225000  0.94164000  0.06520000  1
  Co  Co1  1  0.19988000  0.76516000  0.56105000  1
  Co  Co2  1  0.30188000  0.74291000  0.06509000  1
  Co  Co3  1  0.42759000  0.55458000  0.56332000  1
  Co  Co4  1  0.57241000  0.44542000  0.43668000  1
  Co  Co5  1  0.69812000  0.25709000  0.93491000  1
  Co  Co6  1  0.80012000  0.23484000  0.43895000  1
  Co  Co7  1  0.93775000  0.05836000  0.93480000  1
  H  H8  1  0.01000000  0.18560000  0.38020000  1
  H  H9  1  0.02250000  0.20400000  0.00270000  1
  H  H10  1  0.03170000  0.12300000  0.11500000  1
  H  H11  1  0.04560000  0.33600000  0.00700000  1
  H  H12  1  0.05010000  0.05230000  0.69190000  1
  H  H13  1  0.07430000  0.75840000  0.82390000  1
  H  H14  1  0.07910000  0.64730000  0.70990000  1
  H  H15  1  0.09250000  0.21230000  0.84500000  1
  H  H16  1  0.10040000  0.90080000  0.23800000  1
  H  H17  1  0.11950000  0.41780000  0.91660000  1
  H  H18  1  0.12460000  0.55790000  0.91280000  1
  H  H19  1  0.12960000  0.01410000  0.84870000  1
  H  H20  1  0.13190000  0.07730000  0.31850000  1
  H  H21  1  0.13780000  0.35080000  0.66550000  1
  H  H22  1  0.15180000  0.30290000  0.78920000  1
  H  H23  1  0.16730000  0.95630000  0.23910000  1
  H  H24  1  0.16740000  0.94080000  0.63070000  1
  H  H25  1  0.17960000  0.02310000  0.53890000  1
  H  H26  1  0.18270000  0.81730000  0.32470000  1
  H  H27  1  0.19470000  0.61680000  0.19710000  1
  H  H28  1  0.19590000  0.08070000  0.18350000  1
  H  H29  1  0.20310000  0.42840000  0.41760000  1
  H  H30  1  0.20560000  0.71930000  0.72750000  1
  H  H31  1  0.22450000  0.41840000  0.61050000  1
  H  H32  1  0.23680000  0.88170000  0.33850000  1
  H  H33  1  0.24030000  0.89770000  0.78710000  1
  H  H34  1  0.25680000  0.64090000  0.82820000  1
  H  H35  1  0.27560000  0.15270000  0.24090000  1
  H  H36  1  0.28080000  0.77450000  0.22630000  1
  H  H37  1  0.29090000  0.63800000  0.28560000  1
  H  H38  1  0.29150000  0.75370000  0.73760000  1
  H  H39  1  0.29240000  0.49770000  0.07020000  1
  H  H40  1  0.31190000  0.54850000  0.74450000  1
  H  H41  1  0.32350000  0.06030000  0.97480000  1
  H  H42  1  0.33940000  0.57210000  0.13760000  1
  H  H43  1  0.34420000  0.82650000  0.25160000  1
  H  H44  1  0.35210000  0.66410000  0.82590000  1
  H  H45  1  0.36490000  0.90190000  0.62950000  1
  H  H46  1  0.36510000  0.41090000  0.80940000  1
  H  H47  1  0.37670000  0.24260000  0.22590000  1
  H  H48  1  0.38910000  0.51080000  0.34360000  1
  H  H49  1  0.39340000  0.92620000  0.40360000  1
  H  H50  1  0.39600000  0.58300000  0.72850000  1
  H  H51  1  0.39990000  0.06690000  0.39790000  1
  H  H52  1  0.42640000  0.37880000  0.61120000  1
  H  H53  1  0.43700000  0.32690000  0.28780000  1
  H  H54  1  0.44920000  0.16430000  0.50370000  1
  H  H55  1  0.45690000  0.45670000  0.19340000  1
  H  H56  1  0.46870000  0.89410000  0.12770000  1
  H  H57  1  0.47410000  0.29640000  0.50340000  1
  H  H58  1  0.48240000  0.74760000  0.32860000  1
  H  H59  1  0.49010000  0.29770000  0.86470000  1
  H  H60  1  0.50990000  0.70230000  0.13530000  1
  H  H61  1  0.51760000  0.25240000  0.67140000  1
  H  H62  1  0.52590000  0.70360000  0.49660000  1
  H  H63  1  0.53130000  0.10590000  0.87230000  1
  H  H64  1  0.54310000  0.54330000  0.80660000  1
  H  H65  1  0.55080000  0.83570000  0.49630000  1
  H  H66  1  0.56300000  0.67310000  0.71220000  1
  H  H67  1  0.57360000  0.62120000  0.38880000  1
  H  H68  1  0.60010000  0.93310000  0.60210000  1
  H  H69  1  0.60400000  0.41700000  0.27150000  1
  H  H70  1  0.60660000  0.07380000  0.59640000  1
  H  H71  1  0.61090000  0.48920000  0.65640000  1
  H  H72  1  0.62330000  0.75740000  0.77410000  1
  H  H73  1  0.63490000  0.58910000  0.19060000  1
  H  H74  1  0.63510000  0.09810000  0.37050000  1
  H  H75  1  0.64790000  0.33590000  0.17410000  1
  H  H76  1  0.65580000  0.17350000  0.74840000  1
  H  H77  1  0.66060000  0.42790000  0.86240000  1
  H  H78  1  0.67650000  0.93970000  0.02520000  1
  H  H79  1  0.68810000  0.45150000  0.25550000  1
  H  H80  1  0.70760000  0.50230000  0.92980000  1
  H  H81  1  0.70850000  0.24630000  0.26240000  1
  H  H82  1  0.70910000  0.36200000  0.71440000  1
  H  H83  1  0.71920000  0.22550000  0.77370000  1
  H  H84  1  0.72440000  0.84730000  0.75910000  1
  H  H85  1  0.74320000  0.35910000  0.17180000  1
  H  H86  1  0.75970000  0.10230000  0.21290000  1
  H  H87  1  0.76320000  0.11830000  0.66150000  1
  H  H88  1  0.77550000  0.58160000  0.38950000  1
  H  H89  1  0.79440000  0.28070000  0.27250000  1
  H  H90  1  0.79690000  0.57160000  0.58240000  1
  H  H91  1  0.80410000  0.91930000  0.81650000  1
  H  H92  1  0.80530000  0.38320000  0.80290000  1
  H  H93  1  0.81730000  0.18270000  0.67530000  1
  H  H94  1  0.82040000  0.97690000  0.46110000  1
  H  H95  1  0.83260000  0.05920000  0.36930000  1
  H  H96  1  0.83270000  0.04370000  0.76090000  1
  H  H97  1  0.84820000  0.69710000  0.21080000  1
  H  H98  1  0.86220000  0.64920000  0.33450000  1
  H  H99  1  0.86810000  0.92270000  0.68150000  1
  H  H100  1  0.87040000  0.98590000  0.15130000  1
  H  H101  1  0.87540000  0.44210000  0.08720000  1
  H  H102  1  0.88050000  0.58220000  0.08340000  1
  H  H103  1  0.89960000  0.09920000  0.76200000  1
  H  H104  1  0.90750000  0.78770000  0.15500000  1
  H  H105  1  0.92090000  0.35270000  0.29010000  1
  H  H106  1  0.92570000  0.24160000  0.17610000  1
  H  H107  1  0.94990000  0.94770000  0.30810000  1
  H  H108  1  0.95440000  0.66400000  0.99300000  1
  H  H109  1  0.96830000  0.87700000  0.88500000  1
  H  H110  1  0.97750000  0.79600000  0.99730000  1
  H  H111  1  0.99000000  0.81440000  0.61980000  1
  C  C112  1  0.00260000  0.86260000  0.63500000  1
  C  C113  1  0.01570000  0.40000000  0.76270000  1
  C  C114  1  0.02370000  0.88160000  0.86500000  1
  C  C115  1  0.03620000  0.00420000  0.67790000  1
  C  C116  1  0.04620000  0.26480000  0.82510000  1
  C  C117  1  0.04820000  0.54270000  0.73850000  1
  C  C118  1  0.05470000  0.99910000  0.30600000  1
  C  C119  1  0.05670000  0.71260000  0.17130000  1
  C  C120  1  0.06220000  0.45330000  0.72600000  1
  C  C121  1  0.07140000  0.07220000  0.32830000  1
  C  C122  1  0.08150000  0.32010000  0.79190000  1
  C  C123  1  0.08740000  0.80970000  0.82840000  1
  C  C124  1  0.08770000  0.20180000  0.99740000  1
  C  C125  1  0.08960000  0.57880000  0.23370000  1
  C  C126  1  0.09360000  0.58660000  0.70190000  1
  C  C127  1  0.09870000  0.77100000  0.13570000  1
  C  C128  1  0.10200000  0.28080000  0.00040000  1
  C  C129  1  0.10660000  0.93670000  0.64130000  1
  C  C130  1  0.11850000  0.96190000  0.84380000  1
  C  C131  1  0.12450000  0.63340000  0.20020000  1
  C  C132  1  0.12760000  0.40980000  0.67610000  1
  C  C133  1  0.13380000  0.92790000  0.26560000  1
  C  C134  1  0.15560000  0.43290000  0.94760000  1
  C  C135  1  0.15650000  0.03270000  0.98230000  1
  C  C136  1  0.15850000  0.51750000  0.94540000  1
  C  C137  1  0.16070000  0.54050000  0.65340000  1
  C  C138  1  0.17020000  0.11960000  0.98640000  1
  C  C139  1  0.17100000  0.81350000  0.79800000  1
  C  C140  1  0.17800000  0.45110000  0.64190000  1
  C  C141  1  0.18520000  0.89200000  0.80660000  1
  C  C142  1  0.19860000  0.28000000  0.99370000  1
  C  C143  1  0.20540000  0.37010000  0.99520000  1
  C  C144  1  0.21000000  0.54260000  0.99000000  1
  C  C145  1  0.21330000  0.85400000  0.30500000  1
  C  C146  1  0.21470000  0.63370000  0.98950000  1
  C  C147  1  0.21610000  0.58640000  0.61730000  1
  C  C148  1  0.22550000  0.03060000  0.51080000  1
  C  C149  1  0.23320000  0.11370000  0.50810000  1
  C  C150  1  0.24210000  0.29490000  0.43370000  1
  C  C151  1  0.24390000  0.73510000  0.75950000  1
  C  C152  1  0.25330000  0.37550000  0.43470000  1
  C  C153  1  0.25340000  0.39860000  0.04130000  1
  C  C154  1  0.25740000  0.48190000  0.03880000  1
  C  C155  1  0.26710000  0.05660000  0.18430000  1
  C  C156  1  0.26720000  0.11580000  0.98090000  1
  C  C157  1  0.27430000  0.92320000  0.11830000  1
  C  C158  1  0.28000000  0.19600000  0.98470000  1
  C  C159  1  0.28050000  0.86890000  0.47740000  1
  C  C160  1  0.28530000  0.96000000  0.47210000  1
  C  C161  1  0.29690000  0.12950000  0.46570000  1
  C  C162  1  0.30400000  0.65160000  0.79990000  1
  C  C163  1  0.30520000  0.79270000  0.26440000  1
  C  C164  1  0.31160000  0.21580000  0.46190000  1
  C  C165  1  0.31550000  0.10020000  0.21850000  1
  C  C166  1  0.32440000  0.97690000  0.15120000  1
  C  C167  1  0.34080000  0.37630000  0.46180000  1
  C  C168  1  0.34890000  0.63580000  0.30640000  1
  C  C169  1  0.35120000  0.46460000  0.46610000  1
  C  C170  1  0.35160000  0.97350000  0.42990000  1
  C  C171  1  0.35590000  0.05850000  0.42700000  1
  C  C172  1  0.36060000  0.56860000  0.76310000  1
  C  C173  1  0.37430000  0.70810000  0.30150000  1
  C  C174  1  0.39900000  0.21740000  0.48660000  1
  C  C175  1  0.40170000  0.57410000  0.14670000  1
  C  C176  1  0.40550000  0.72770000  0.62920000  1
  C  C177  1  0.40750000  0.55940000  0.34180000  1
  C  C178  1  0.41410000  0.29700000  0.48660000  1
  C  C179  1  0.41750000  0.87230000  0.65830000  1
  C  C180  1  0.42190000  0.06820000  0.22040000  1
  C  C181  1  0.42460000  0.41700000  0.82010000  1
  C  C182  1  0.42850000  0.21270000  0.25520000  1
  C  C183  1  0.42920000  0.94620000  0.15070000  1
  C  C184  1  0.43730000  0.49170000  0.80110000  1
  C  C185  1  0.45460000  0.77850000  0.66620000  1
  C  C186  1  0.45750000  0.92190000  0.69250000  1
  C  C187  1  0.46060000  0.70120000  0.33190000  1
  C  C188  1  0.46600000  0.26380000  0.29180000  1
  C  C189  1  0.46650000  0.11800000  0.26110000  1
  C  C190  1  0.47070000  0.50570000  0.18130000  1
  C  C191  1  0.47700000  0.99120000  0.18370000  1
  C  C192  1  0.48450000  0.37570000  0.63240000  1
  C  C193  1  0.49960000  0.34980000  0.85520000  1
  C  C194  1  0.50040000  0.65020000  0.14480000  1
  C  C195  1  0.51550000  0.62430000  0.36760000  1
  C  C196  1  0.52300000  0.00880000  0.81630000  1
  C  C197  1  0.52930000  0.49430000  0.81870000  1
  C  C198  1  0.53350000  0.88200000  0.73890000  1
  C  C199  1  0.53400000  0.73620000  0.70820000  1
  C  C200  1  0.53940000  0.29880000  0.66810000  1
  C  C201  1  0.54250000  0.07810000  0.30750000  1
  C  C202  1  0.54540000  0.22150000  0.33380000  1
  C  C203  1  0.56270000  0.50830000  0.19890000  1
  C  C204  1  0.57080000  0.05380000  0.84930000  1
  C  C205  1  0.57150000  0.78730000  0.74480000  1
  C  C206  1  0.57540000  0.58300000  0.17990000  1
  C  C207  1  0.57810000  0.93180000  0.77960000  1
  C  C208  1  0.58250000  0.12770000  0.34170000  1
  C  C209  1  0.58590000  0.70300000  0.51340000  1
  C  C210  1  0.59250000  0.44060000  0.65820000  1
  C  C211  1  0.59450000  0.27230000  0.37080000  1
  C  C212  1  0.59830000  0.42590000  0.85330000  1
  C  C213  1  0.60100000  0.78260000  0.51340000  1
  C  C214  1  0.62570000  0.29190000  0.69850000  1
  C  C215  1  0.63940000  0.43140000  0.23690000  1
  C  C216  1  0.64410000  0.94150000  0.57300000  1
  C  C217  1  0.64840000  0.02650000  0.57010000  1
  C  C218  1  0.64880000  0.53540000  0.53390000  1
  C  C219  1  0.65110000  0.36420000  0.69360000  1
  C  C220  1  0.65920000  0.62370000  0.53820000  1
  C  C221  1  0.67560000  0.02310000  0.84880000  1
  C  C222  1  0.68450000  0.89980000  0.78150000  1
  C  C223  1  0.68840000  0.78420000  0.53810000  1
  C  C224  1  0.69480000  0.20730000  0.73560000  1
  C  C225  1  0.69600000  0.34840000  0.20010000  1
  C  C226  1  0.70310000  0.87050000  0.53430000  1
  C  C227  1  0.71470000  0.04000000  0.52790000  1
  C  C228  1  0.71950000  0.13110000  0.52260000  1
  C  C229  1  0.72000000  0.80400000  0.01530000  1
  C  C230  1  0.72570000  0.07680000  0.88170000  1
  C  C231  1  0.73280000  0.88420000  0.01910000  1
  C  C232  1  0.73290000  0.94340000  0.81570000  1
  C  C233  1  0.74260000  0.51810000  0.96120000  1
  C  C234  1  0.74660000  0.60140000  0.95870000  1
  C  C235  1  0.74670000  0.62450000  0.56530000  1
  C  C236  1  0.75610000  0.26490000  0.24050000  1
  C  C237  1  0.75790000  0.70510000  0.56630000  1
  C  C238  1  0.76680000  0.88630000  0.49190000  1
  C  C239  1  0.77450000  0.96940000  0.48920000  1
  C  C240  1  0.78390000  0.41360000  0.38270000  1
  C  C241  1  0.78530000  0.36630000  0.01050000  1
  C  C242  1  0.78670000  0.14600000  0.69500000  1
  C  C243  1  0.79000000  0.45740000  0.01000000  1
  C  C244  1  0.79460000  0.62990000  0.00480000  1
  C  C245  1  0.80140000  0.72000000  0.00630000  1
  C  C246  1  0.81480000  0.10800000  0.19340000  1
  C  C247  1  0.82200000  0.54890000  0.35810000  1
  C  C248  1  0.82900000  0.18650000  0.20200000  1
  C  C249  1  0.82980000  0.88040000  0.01360000  1
  C  C250  1  0.83930000  0.45950000  0.34660000  1
  C  C251  1  0.84150000  0.48250000  0.05460000  1
  C  C252  1  0.84350000  0.96730000  0.01770000  1
  C  C253  1  0.84440000  0.56710000  0.05240000  1
  C  C254  1  0.86620000  0.07210000  0.73440000  1
  C  C255  1  0.87240000  0.59020000  0.32390000  1
  C  C256  1  0.87550000  0.36660000  0.79980000  1
  C  C257  1  0.88150000  0.03810000  0.15620000  1
  C  C258  1  0.89340000  0.06330000  0.35870000  1
  C  C259  1  0.89800000  0.71920000  0.99960000  1
  C  C260  1  0.90130000  0.22900000  0.86430000  1
  C  C261  1  0.90640000  0.41340000  0.29810000  1
  C  C262  1  0.91040000  0.42120000  0.76630000  1
  C  C263  1  0.91230000  0.79820000  0.00260000  1
  C  C264  1  0.91260000  0.19030000  0.17160000  1
  C  C265  1  0.91850000  0.67990000  0.20810000  1
  C  C266  1  0.92860000  0.92780000  0.67170000  1
  C  C267  1  0.93780000  0.54670000  0.27400000  1
  C  C268  1  0.94330000  0.28740000  0.82870000  1
  C  C269  1  0.94530000  0.00090000  0.69400000  1
  C  C270  1  0.95180000  0.45730000  0.26150000  1
  C  C271  1  0.95380000  0.73520000  0.17490000  1
  C  C272  1  0.96380000  0.99580000  0.32210000  1
  C  C273  1  0.97630000  0.11840000  0.13500000  1
  C  C274  1  0.98430000  0.60000000  0.23730000  1
  C  C275  1  0.99740000  0.13740000  0.36500000  1
  N  N276  1  0.01580000  0.40550000  0.20840000  1
  N  N277  1  0.03730000  0.95700000  0.87330000  1
  N  N278  1  0.09190000  0.86520000  0.61990000  1
  N  N279  1  0.14990000  0.29760000  0.40210000  1
  N  N280  1  0.16640000  0.49940000  0.26480000  1
  N  N281  1  0.17050000  0.18190000  0.55480000  1
  N  N282  1  0.30180000  0.34120000  0.09640000  1
  N  N283  1  0.38710000  0.18390000  0.97940000  1
  N  N284  1  0.40980000  0.04710000  0.82260000  1
  N  N285  1  0.41620000  0.01900000  0.67740000  1
  N  N286  1  0.41800000  0.64620000  0.12420000  1
  N  N287  1  0.49050000  0.55420000  0.37340000  1
  N  N288  1  0.50950000  0.44580000  0.62660000  1
  N  N289  1  0.58200000  0.35380000  0.87580000  1
  N  N290  1  0.58380000  0.98100000  0.32260000  1
  N  N291  1  0.59020000  0.95290000  0.17740000  1
  N  N292  1  0.61290000  0.81610000  0.02060000  1
  N  N293  1  0.69820000  0.65880000  0.90360000  1
  N  N294  1  0.82950000  0.81810000  0.44520000  1
  N  N295  1  0.83360000  0.50060000  0.73520000  1
  N  N296  1  0.85010000  0.70240000  0.59790000  1
  N  N297  1  0.90810000  0.13480000  0.38010000  1
  N  N298  1  0.96270000  0.04300000  0.12670000  1
  N  N299  1  0.98420000  0.59450000  0.79160000  1
  O  O300  1  0.03030000  0.44690000  0.16470000  1
  O  O301  1  0.03490000  0.84530000  0.11420000  1
  O  O302  1  0.05070000  0.32120000  0.21060000  1
  O  O303  1  0.06690000  0.03740000  0.99766000  1
  O  O304  1  0.07540000  0.36250000  0.39950000  1
  O  O305  1  0.12730000  0.16180000  0.59830000  1
  O  O306  1  0.14090000  0.23850000  0.38070000  1
  O  O307  1  0.14900000  0.69770000  0.95940000  1
  O  O308  1  0.15060000  0.26140000  0.54570000  1
  O  O309  1  0.15350000  0.43240000  0.28270000  1
  O  O310  1  0.17480000  0.67160000  0.61540000  1
  O  O311  1  0.17590000  0.83680000  0.00679000  1
  O  O312  1  0.17930000  0.96130000  0.11180000  1
  O  O313  1  0.19360000  0.74100000  0.13090000  1
  O  O314  1  0.20120000  0.87000000  0.50410000  1
  O  O315  1  0.23010000  0.96200000  0.96590000  1
  O  O316  1  0.25370000  0.49830000  0.27740000  1
  O  O317  1  0.27830000  0.53580000  0.44870000  1
  O  O318  1  0.28840000  0.63660000  0.02080000  1
  O  O319  1  0.30010000  0.53640000  0.59290000  1
  O  O320  1  0.31570000  0.05780000  0.67280000  1
  O  O321  1  0.31820000  0.77690000  0.60870000  1
  O  O322  1  0.32280000  0.66380000  0.50278000  1
  O  O323  1  0.33140000  0.25760000  0.09460000  1
  O  O324  1  0.33310000  0.84370000  0.10300000  1
  O  O325  1  0.35320000  0.80090000  0.45700000  1
  O  O326  1  0.36300000  0.12660000  0.83420000  1
  O  O327  1  0.36960000  0.99410000  0.81720000  1
  O  O328  1  0.39430000  0.34360000  0.11140000  1
  O  O329  1  0.39970000  0.25000000  0.95850000  1
  O  O330  1  0.43520000  0.46170000  0.48861000  1
  O  O331  1  0.45360000  0.64360000  0.62390000  1
  O  O332  1  0.45610000  0.11420000  0.99440000  1
  O  O333  1  0.45830000  0.06470000  0.69090000  1
  O  O334  1  0.54170000  0.93530000  0.30910000  1
  O  O335  1  0.54390000  0.88580000  0.00560000  1
  O  O336  1  0.54640000  0.35640000  0.37610000  1
  O  O337  1  0.56480000  0.53830000  0.51139000  1
  O  O338  1  0.60030000  0.75000000  0.04150000  1
  O  O339  1  0.60570000  0.65640000  0.88860000  1
  O  O340  1  0.63040000  0.00590000  0.18280000  1
  O  O341  1  0.63700000  0.87340000  0.16580000  1
  O  O342  1  0.64680000  0.19910000  0.54300000  1
  O  O343  1  0.66690000  0.15630000  0.89700000  1
  O  O344  1  0.66860000  0.74240000  0.90540000  1
  O  O345  1  0.67720000  0.33620000  0.49722000  1
  O  O346  1  0.68180000  0.22310000  0.39130000  1
  O  O347  1  0.68430000  0.94220000  0.32720000  1
  O  O348  1  0.69990000  0.46360000  0.40710000  1
  O  O349  1  0.71160000  0.36340000  0.97920000  1
  O  O350  1  0.72170000  0.46420000  0.55130000  1
  O  O351  1  0.74630000  0.50170000  0.72260000  1
  O  O352  1  0.76990000  0.03800000  0.03410000  1
  O  O353  1  0.79880000  0.13000000  0.49590000  1
  O  O354  1  0.80640000  0.25900000  0.86910000  1
  O  O355  1  0.82070000  0.03870000  0.88820000  1
  O  O356  1  0.82410000  0.16320000  0.99321000  1
  O  O357  1  0.82520000  0.32840000  0.38460000  1
  O  O358  1  0.84650000  0.56760000  0.71730000  1
  O  O359  1  0.84940000  0.73860000  0.45430000  1
  O  O360  1  0.85100000  0.30230000  0.04060000  1
  O  O361  1  0.85910000  0.76150000  0.61930000  1
  O  O362  1  0.87270000  0.83820000  0.40170000  1
  O  O363  1  0.92460000  0.63750000  0.60050000  1
  O  O364  1  0.93310000  0.96260000  0.00234000  1
  O  O365  1  0.94930000  0.67880000  0.78940000  1
  O  O366  1  0.96510000  0.15470000  0.88580000  1
  O  O367  1  0.96970000  0.55310000  0.83530000  1
