# generated using pymatgen
data_Zn3H26C28S2(N3O2)6
_symmetry_space_group_name_H-M   'P 1'
_cell_length_a   8.91000000
_cell_length_b   12.00700000
_cell_length_c   12.52600000
_cell_angle_alpha   77.70800000
_cell_angle_beta   76.62900000
_cell_angle_gamma   76.37800000
_symmetry_Int_Tables_number   1
_chemical_formula_structural   Zn3H26C28S2(N3O2)6
_chemical_formula_sum   'Zn3 H26 C28 S2 N18 O12'
_cell_volume   1249.14964235
_cell_formula_units_Z   1
loop_
 _symmetry_equiv_pos_site_id
 _symmetry_equiv_pos_as_xyz
  1  'x, y, z'
loop_
 _atom_site_type_symbol
 _atom_site_label
 _atom_site_symmetry_multiplicity
 _atom_site_fract_x
 _atom_site_fract_y
 _atom_site_fract_z
 _atom_site_occupancy
  Zn  Zn0  1  0.00000000  0.00000000  0.00000000  1
  Zn  Zn1  1  0.28638000  0.74675000  0.90393000  1
  Zn  Zn2  1  0.71362000  0.25325000  0.09607000  1
  H  H3  1  0.02040000  0.40010000  0.26410000  1
  H  H4  1  0.02320000  0.60470000  0.05510000  1
  H  H5  1  0.10530000  0.48400000  0.74510000  1
  H  H6  1  0.10990000  0.27090000  0.36520000  1
  H  H7  1  0.15720000  0.90740000  0.22450000  1
  H  H8  1  0.17650000  0.22460000  0.47530000  1
  H  H9  1  0.19890000  0.17650000  0.84060000  1
  H  H10  1  0.23370000  0.35070000  0.67830000  1
  H  H11  1  0.27160000  0.27360000  0.58520000  1
  H  H12  1  0.34440000  0.25420000  0.20090000  1
  H  H13  1  0.34710000  0.66150000  0.67340000  1
  H  H14  1  0.35040000  0.06520000  0.00750000  1
  H  H15  1  0.42720000  0.61120000  0.11780000  1
  H  H16  1  0.57280000  0.38880000  0.88220000  1
  H  H17  1  0.64960000  0.93480000  0.99250000  1
  H  H18  1  0.65290000  0.33850000  0.32660000  1
  H  H19  1  0.65560000  0.74580000  0.79910000  1
  H  H20  1  0.72840000  0.72640000  0.41480000  1
  H  H21  1  0.76630000  0.64930000  0.32170000  1
  H  H22  1  0.80110000  0.82350000  0.15940000  1
  H  H23  1  0.82350000  0.77540000  0.52470000  1
  H  H24  1  0.84280000  0.09260000  0.77550000  1
  H  H25  1  0.89010000  0.72910000  0.63480000  1
  H  H26  1  0.89470000  0.51600000  0.25490000  1
  H  H27  1  0.97680000  0.39530000  0.94490000  1
  H  H28  1  0.97960000  0.59990000  0.73590000  1
  C  C29  1  0.00170000  0.50990000  0.60920000  1
  C  C30  1  0.00180000  0.51870000  0.72810000  1
  C  C31  1  0.07230000  0.87240000  0.23060000  1
  C  C32  1  0.08310000  0.39950000  0.45690000  1
  C  C33  1  0.08700000  0.41030000  0.56540000  1
  C  C34  1  0.10830000  0.59460000  0.08980000  1
  C  C35  1  0.11930000  0.17220000  0.80580000  1
  C  C36  1  0.16980000  0.28830000  0.41310000  1
  C  C37  1  0.18700000  0.31550000  0.63450000  1
  C  C38  1  0.32690000  0.59670000  0.12550000  1
  C  C39  1  0.38530000  0.89740000  0.97180000  1
  C  C40  1  0.39420000  0.27580000  0.24870000  1
  C  C41  1  0.42810000  0.99960000  0.99650000  1
  C  C42  1  0.44050000  0.67820000  0.68120000  1
  C  C43  1  0.55950000  0.32180000  0.31880000  1
  C  C44  1  0.57190000  0.00040000  0.00350000  1
  C  C45  1  0.60580000  0.72420000  0.75130000  1
  C  C46  1  0.61470000  0.10260000  0.02820000  1
  C  C47  1  0.67310000  0.40330000  0.87450000  1
  C  C48  1  0.81300000  0.68450000  0.36550000  1
  C  C49  1  0.83020000  0.71170000  0.58690000  1
  C  C50  1  0.88070000  0.82780000  0.19420000  1
  C  C51  1  0.89170000  0.40540000  0.91020000  1
  C  C52  1  0.91300000  0.58970000  0.43460000  1
  C  C53  1  0.91690000  0.60050000  0.54310000  1
  C  C54  1  0.92770000  0.12760000  0.76940000  1
  C  C55  1  0.99820000  0.48130000  0.27190000  1
  C  C56  1  0.99830000  0.49010000  0.39080000  1
  S  S57  1  0.05323000  0.20020000  0.14001000  1
  S  S58  1  0.94677000  0.79980000  0.85999000  1
  N  N59  1  0.01590000  0.10370000  0.84700000  1
  N  N60  1  0.02840000  0.79430000  0.31730000  1
  N  N61  1  0.09440000  0.23340000  0.70920000  1
  N  N62  1  0.11610000  0.54030000  0.19230000  1
  N  N63  1  0.24200000  0.63280000  0.04360000  1
  N  N64  1  0.25640000  0.53980000  0.21620000  1
  N  N65  1  0.32860000  0.29620000  0.35050000  1
  N  N66  1  0.43370000  0.32620000  0.39720000  1
  N  N67  1  0.45820000  0.70930000  0.77470000  1
  N  N68  1  0.54180000  0.29070000  0.22530000  1
  N  N69  1  0.56630000  0.67380000  0.60280000  1
  N  N70  1  0.67140000  0.70380000  0.64950000  1
  N  N71  1  0.74360000  0.46020000  0.78380000  1
  N  N72  1  0.75800000  0.36720000  0.95640000  1
  N  N73  1  0.88390000  0.45970000  0.80770000  1
  N  N74  1  0.90560000  0.76660000  0.29080000  1
  N  N75  1  0.97160000  0.20570000  0.68270000  1
  N  N76  1  0.98410000  0.89630000  0.15300000  1
  O  O77  1  0.07320000  0.13140000  0.05260000  1
  O  O78  1  0.11830000  0.76070000  0.82030000  1
  O  O79  1  0.12170000  0.13140000  0.23370000  1
  O  O80  1  0.12510000  0.30110000  0.09550000  1
  O  O81  1  0.24860000  0.90860000  0.94740000  1
  O  O82  1  0.47860000  0.80280000  0.97130000  1
  O  O83  1  0.52140000  0.19720000  0.02870000  1
  O  O84  1  0.75140000  0.09140000  0.05260000  1
  O  O85  1  0.87490000  0.69890000  0.90450000  1
  O  O86  1  0.87830000  0.86860000  0.76630000  1
  O  O87  1  0.88170000  0.23930000  0.17970000  1
  O  O88  1  0.92680000  0.86860000  0.94740000  1
