# generated using pymatgen
data_Mn3H39C42N8O9
_symmetry_space_group_name_H-M   'P 1'
_cell_length_a   17.46800000
_cell_length_b   30.08145769
_cell_length_c   30.08145769
_cell_angle_alpha   85.16421498
_cell_angle_beta   73.12138986
_cell_angle_gamma   73.12138986
_symmetry_Int_Tables_number   1
_chemical_formula_structural   Mn3H39C42N8O9
_chemical_formula_sum   'Mn24 H312 C336 N64 O72'
_cell_volume   14474.18289585
_cell_formula_units_Z   8
loop_
 _symmetry_equiv_pos_site_id
 _symmetry_equiv_pos_as_xyz
  1  'x, y, z'
loop_
 _atom_site_type_symbol
 _atom_site_label
 _atom_site_symmetry_multiplicity
 _atom_site_fract_x
 _atom_site_fract_y
 _atom_site_fract_z
 _atom_site_occupancy
  C  C0  1  0.48858000  0.60772000  0.38692000  1
  C  C1  1  0.51678000  0.10772000  0.88692000  1
  C  C2  1  0.43446000  0.90255000  0.07753000  1
  C  C3  1  0.58546000  0.40255000  0.57753000  1
  C  C4  1  0.39119000  0.55492000  0.41450000  1
  C  C5  1  0.63939000  0.05492000  0.91450000  1
  C  C6  1  0.23583000  0.50127000  0.44927000  1
  C  C7  1  0.81363000  0.00127000  0.94927000  1
  C  C8  1  0.64292000  0.93625000  0.00191000  1
  C  C9  1  0.41892000  0.43625000  0.50191000  1
  C  C10  1  0.71810000  0.89950000  0.02030000  1
  C  C11  1  0.36210000  0.39950000  0.52030000  1
  C  C12  1  0.94096000  0.95314000  0.96554000  1
  C  C13  1  0.14036000  0.45314000  0.46554000  1
  C  C14  1  0.21825000  0.45844000  0.44186000  1
  C  C15  1  0.88145000  0.95844000  0.94186000  1
  C  C16  1  0.70305000  0.44697000  0.43253000  1
  C  C17  1  0.41745000  0.94697000  0.93253000  1
  C  C18  1  0.71900000  0.50756000  0.36984000  1
  C  C19  1  0.40360000  0.00756000  0.86984000  1
  C  C20  1  0.63357000  0.91438000  0.96188000  1
  C  C21  1  0.49017000  0.41438000  0.46188000  1
  C  C22  1  0.66833000  0.47726000  0.39688000  1
  C  C23  1  0.45753000  0.97726000  0.89688000  1
  C  C24  1  0.00740000  0.91160000  0.96120000  1
  C  C25  1  0.11980000  0.41160000  0.46120000  1
  C  C26  1  0.92081000  0.45179000  0.41859000  1
  C  C27  1  0.20881000  0.95179000  0.91859000  1
  C  C28  1  0.30907000  0.82467000  0.02939000  1
  C  C29  1  0.83687000  0.32467000  0.52939000  1
  C  C30  1  0.26808000  0.79389000  0.05695000  1
  C  C31  1  0.88108000  0.29389000  0.55695000  1
  C  C32  1  0.27835000  0.42248000  0.41222000  1
  C  C33  1  0.88695000  0.92248000  0.91222000  1
  C  C34  1  0.98650000  0.45170000  0.37830000  1
  C  C35  1  0.18350000  0.95170000  0.87830000  1
  C  C36  1  0.39208000  0.80712000  0.00412000  1
  C  C37  1  0.79668000  0.30712000  0.50412000  1
  C  C38  1  0.63452000  0.55750000  0.25306000  1
  C  C39  1  0.55492000  0.05750000  0.75306000  1
  C  C40  1  0.00960000  0.87620000  0.93400000  1
  C  C41  1  0.18020000  0.37620000  0.43400000  1
  C  C42  1  0.44133000  0.83559000  0.97335000  1
  C  C43  1  0.74973000  0.33559000  0.47335000  1
  C  C44  1  0.30798000  0.74694000  0.05750000  1
  C  C45  1  0.88758000  0.24694000  0.55750000  1
  C  C46  1  0.57745000  0.53284000  0.27066000  1
  C  C47  1  0.61905000  0.03284000  0.77066000  1
  C  C48  1  0.25441000  0.87549000  0.91829000  1
  C  C49  1  0.95181000  0.37549000  0.41829000  1
  C  C50  1  0.95314000  0.88083000  0.91089000  1
  C  C51  1  0.25514000  0.38083000  0.41089000  1
  C  C52  1  0.04235000  0.40755000  0.36215000  1
  C  C53  1  0.18795000  0.90755000  0.86215000  1
  C  C54  1  0.43137000  0.75951000  0.00635000  1
  C  C55  1  0.80277000  0.25951000  0.50635000  1
  C  C56  1  0.67497000  0.55695000  0.20611000  1
  C  C57  1  0.56197000  0.05695000  0.70611000  1
  C  C58  1  0.38971000  0.72934000  0.03284000  1
  C  C59  1  0.84811000  0.22934000  0.53284000  1
  C  C60  1  0.15400000  0.43970000  0.31370000  1
  C  C61  1  0.09260000  0.93970000  0.81370000  1
  C  C62  1  0.22913000  0.87247000  0.87927000  1
  C  C63  1  0.01913000  0.37247000  0.37927000  1
  C  C64  1  0.56075000  0.40702000  0.34348000  1
  C  C65  1  0.68875000  0.90702000  0.84348000  1
  C  C66  1  0.56228000  0.50635000  0.24049000  1
  C  C67  1  0.69088000  0.00635000  0.74049000  1
  C  C68  1  0.76898000  0.80527000  0.92617000  1
  C  C69  1  0.49958000  0.30527000  0.42617000  1
  C  C70  1  0.12327000  0.40193000  0.32273000  1
  C  C71  1  0.15207000  0.90193000  0.82273000  1
  C  C72  1  0.40370000  0.61308000  0.10772000  1
  C  C73  1  0.87550000  0.11308000  0.60772000  1
  C  C74  1  0.23335000  0.43175000  0.27435000  1
  C  C75  1  0.06055000  0.93175000  0.77435000  1
  C  C76  1  0.66154000  0.52939000  0.17533000  1
  C  C77  1  0.63374000  0.02939000  0.67533000  1
  C  C78  1  0.31113000  0.42123000  0.28291000  1
  C  C79  1  0.98473000  0.92123000  0.78291000  1
  C  C80  1  0.83352000  0.77053000  0.93323000  1
  C  C81  1  0.46272000  0.27053000  0.43323000  1
  C  C82  1  0.60380000  0.50412000  0.19288000  1
  C  C83  1  0.69920000  0.00412000  0.69288000  1
  C  C84  1  0.62972000  0.37972000  0.30704000  1
  C  C85  1  0.68352000  0.87972000  0.80704000  1
  C  C86  1  0.48801000  0.57753000  0.09745000  1
  C  C87  1  0.83701000  0.07753000  0.59745000  1
  C  C88  1  0.70148000  0.75426000  0.91558000  1
  C  C89  1  0.62868000  0.25426000  0.41558000  1
  C  C90  1  0.70106000  0.34795000  0.31653000  1
  C  C91  1  0.63446000  0.84795000  0.81653000  1
  C  C92  1  0.23325000  0.43323000  0.22947000  1
  C  C93  1  0.10405000  0.93323000  0.72947000  1
  C  C94  1  0.38294000  0.41558000  0.24574000  1
  C  C95  1  0.95574000  0.91558000  0.74574000  1
  C  C96  1  0.83490000  0.72565000  0.93175000  1
  C  C97  1  0.50770000  0.22565000  0.43175000  1
  C  C98  1  0.62535000  0.38537000  0.26133000  1
  C  C99  1  0.72795000  0.88537000  0.76133000  1
  C  C100  1  0.55389000  0.58550000  0.05492000  1
  C  C101  1  0.80569000  0.08550000  0.55492000  1
  C  C102  1  0.76764000  0.71709000  0.92123000  1
  C  C103  1  0.59404000  0.21709000  0.42123000  1
  C  C104  1  0.58532000  0.47335000  0.16441000  1
  C  C105  1  0.77692000  0.97335000  0.66441000  1
  C  C106  1  0.27344000  0.63016000  0.00756000  1
  C  C107  1  0.08884000  0.13016000  0.50756000  1
  C  C108  1  0.45331000  0.77491000  0.86047000  1
  C  C109  1  0.91131000  0.27491000  0.36047000  1
  C  C110  1  0.90630000  0.68630000  0.93970000  1
  C  C111  1  0.46770000  0.18630000  0.43970000  1
  C  C112  1  0.48928000  0.73867000  0.88537000  1
  C  C113  1  0.88668000  0.23867000  0.38537000  1
  C  C114  1  0.30485000  0.42617000  0.19473000  1
  C  C115  1  0.07425000  0.92617000  0.69473000  1
  C  C116  1  0.26160000  0.52030000  0.10050000  1
  C  C117  1  0.11760000  0.02030000  0.60050000  1
  C  C118  1  0.76330000  0.32355000  0.27905000  1
  C  C119  1  0.63410000  0.82355000  0.77905000  1
  C  C120  1  0.41406000  0.76541000  0.82907000  1
  C  C121  1  0.99146000  0.26541000  0.32907000  1
  C  C122  1  0.68622000  0.36047000  0.22509000  1
  C  C123  1  0.72822000  0.86047000  0.72509000  1
  C  C124  1  0.35441000  0.60312000  0.97726000  1
  C  C125  1  0.06521000  0.10312000  0.47726000  1
  C  C126  1  0.97480000  0.67727000  0.90193000  1
  C  C127  1  0.44600000  0.17727000  0.40193000  1
  C  C128  1  0.06180000  0.62170000  0.95170000  1
  C  C129  1  0.36480000  0.12170000  0.45170000  1
  C  C130  1  0.49056000  0.69296000  0.87972000  1
  C  C131  1  0.93676000  0.19296000  0.37972000  1
  C  C132  1  0.35517000  0.50191000  0.06375000  1
  C  C133  1  0.07917000  0.00191000  0.56375000  1
  C  C134  1  0.75687000  0.32907000  0.23459000  1
  C  C135  1  0.67947000  0.82907000  0.73459000  1
  C  C136  1  0.53223000  0.65652000  0.90702000  1
  C  C137  1  0.90423000  0.15652000  0.40702000  1
  C  C138  1  0.05640000  0.43400000  0.12380000  1
  C  C139  1  0.38580000  0.93400000  0.62380000  1
  C  C140  1  0.76290000  0.55073000  0.00127000  1
  C  C141  1  0.68510000  0.05073000  0.50127000  1
  C  C142  1  0.03140000  0.46120000  0.08840000  1
  C  C143  1  0.41900000  0.96120000  0.58840000  1
  C  C144  1  0.40455000  0.46188000  0.08562000  1
  C  C145  1  0.04795000  0.96188000  0.58562000  1
  C  C146  1  0.05010000  0.63785000  0.90755000  1
  C  C147  1  0.40450000  0.13785000  0.40755000  1
  C  C148  1  0.41315000  0.72095000  0.82355000  1
  C  C149  1  0.04235000  0.22095000  0.32355000  1
  C  C150  1  0.82730000  0.41829000  0.12451000  1
  C  C151  1  0.62990000  0.91829000  0.62451000  1
  C  C152  1  0.12740000  0.58141000  0.95179000  1
  C  C153  1  0.33940000  0.08141000  0.45179000  1
  C  C154  1  0.45099000  0.68347000  0.84795000  1
  C  C155  1  0.01759000  0.18347000  0.34795000  1
  C  C156  1  0.13597000  0.41089000  0.11917000  1
  C  C157  1  0.33397000  0.91089000  0.61917000  1
  C  C158  1  0.82331000  0.55814000  0.95844000  1
  C  C159  1  0.66011000  0.05814000  0.45844000  1
  C  C160  1  0.34998000  0.56747000  0.94697000  1
  C  C161  1  0.13558000  0.06747000  0.44697000  1
  C  C162  1  0.09350000  0.46554000  0.04686000  1
  C  C163  1  0.39410000  0.96554000  0.54686000  1
  C  C164  1  0.79917000  0.58778000  0.92248000  1
  C  C165  1  0.69057000  0.08778000  0.42248000  1
  C  C166  1  0.89160000  0.37927000  0.12753000  1
  C  C167  1  0.60160000  0.87927000  0.62753000  1
  C  C168  1  0.10840000  0.62073000  0.87247000  1
  C  C169  1  0.39840000  0.12073000  0.37247000  1
  C  C170  1  0.20083000  0.41222000  0.07752000  1
  C  C171  1  0.30943000  0.91222000  0.57752000  1
  C  C172  1  0.90650000  0.53446000  0.95314000  1
  C  C173  1  0.60590000  0.03446000  0.45314000  1
  C  C174  1  0.65002000  0.43253000  0.05303000  1
  C  C175  1  0.86442000  0.93253000  0.55303000  1
  C  C176  1  0.17669000  0.44186000  0.04156000  1
  C  C177  1  0.33989000  0.94186000  0.54156000  1
  C  C178  1  0.86403000  0.58911000  0.88083000  1
  C  C179  1  0.66603000  0.08911000  0.38083000  1
  C  C180  1  0.54901000  0.31653000  0.15205000  1
  C  C181  1  0.98241000  0.81653000  0.65205000  1
  C  C182  1  0.87260000  0.41859000  0.04821000  1
  C  C183  1  0.66060000  0.91859000  0.54821000  1
  C  C184  1  0.17270000  0.58171000  0.87549000  1
  C  C185  1  0.37010000  0.08171000  0.37549000  1
  C  C186  1  0.58685000  0.27905000  0.17645000  1
  C  C187  1  0.95765000  0.77905000  0.67645000  1
  C  C188  1  0.94990000  0.36215000  0.09245000  1
  C  C189  1  0.59550000  0.86215000  0.59245000  1
  C  C190  1  0.59545000  0.53812000  0.91438000  1
  C  C191  1  0.95205000  0.03812000  0.41438000  1
  C  C192  1  0.96860000  0.53880000  0.91160000  1
  C  C193  1  0.58100000  0.03880000  0.41160000  1
  C  C194  1  0.23710000  0.44927000  0.99873000  1
  C  C195  1  0.31490000  0.94927000  0.49873000  1
  C  C196  1  0.94360000  0.56600000  0.87620000  1
  C  C197  1  0.61420000  0.06600000  0.37620000  1
  C  C198  1  0.46777000  0.34348000  0.09298000  1
  C  C199  1  0.09577000  0.84348000  0.59298000  1
  C  C200  1  0.24313000  0.67093000  0.76541000  1
  C  C201  1  0.32053000  0.17093000  0.26541000  1
  C  C202  1  0.64483000  0.49809000  0.93625000  1
  C  C203  1  0.92083000  0.99809000  0.43625000  1
  C  C204  1  0.50944000  0.30704000  0.12028000  1
  C  C205  1  0.06324000  0.80704000  0.62028000  1
  C  C206  1  0.93820000  0.37830000  0.04830000  1
  C  C207  1  0.63520000  0.87830000  0.54830000  1
  C  C208  1  0.02520000  0.32273000  0.09807000  1
  C  C209  1  0.55400000  0.82273000  0.59807000  1
  C  C210  1  0.64559000  0.39688000  0.02274000  1
  C  C211  1  0.93479000  0.89688000  0.52274000  1
  C  C212  1  0.31378000  0.63953000  0.77491000  1
  C  C213  1  0.27178000  0.13953000  0.27491000  1
  C  C214  1  0.58594000  0.23459000  0.17093000  1
  C  C215  1  0.00854000  0.73459000  0.67093000  1
  C  C216  1  0.23670000  0.67645000  0.72095000  1
  C  C217  1  0.36590000  0.17645000  0.22095000  1
  C  C218  1  0.73840000  0.47970000  0.89950000  1
  C  C219  1  0.88240000  0.97970000  0.39950000  1
  C  C220  1  0.69515000  0.57383000  0.80527000  1
  C  C221  1  0.92575000  0.07383000  0.30527000  1
  C  C222  1  0.51072000  0.26133000  0.11463000  1
  C  C223  1  0.11332000  0.76133000  0.61463000  1
  C  C224  1  0.09370000  0.31370000  0.06030000  1
  C  C225  1  0.53230000  0.81370000  0.56030000  1
  C  C226  1  0.54669000  0.22509000  0.13953000  1
  C  C227  1  0.08869000  0.72509000  0.63953000  1
  C  C228  1  0.72656000  0.36984000  0.99244000  1
  C  C229  1  0.91116000  0.86984000  0.49244000  1
  C  C230  1  0.41468000  0.52665000  0.83559000  1
  C  C231  1  0.22308000  0.02665000  0.33559000  1
  C  C232  1  0.23236000  0.28291000  0.07877000  1
  C  C233  1  0.40596000  0.78291000  0.57877000  1
  C  C234  1  0.44611000  0.41450000  0.94508000  1
  C  C235  1  0.19431000  0.91450000  0.44508000  1
  C  C236  1  0.37465000  0.61463000  0.73867000  1
  C  C237  1  0.27205000  0.11463000  0.23867000  1
  C  C238  1  0.16510000  0.27435000  0.06825000  1
  C  C239  1  0.49230000  0.77435000  0.56825000  1
  C  C240  1  0.61706000  0.58442000  0.75426000  1
  C  C241  1  0.04426000  0.08442000  0.25426000  1
  C  C242  1  0.76675000  0.56677000  0.77053000  1
  C  C243  1  0.89595000  0.06677000  0.27053000  1
  C  C244  1  0.29894000  0.65205000  0.68347000  1
  C  C245  1  0.36554000  0.15205000  0.18347000  1
  C  C246  1  0.29852000  0.24574000  0.08442000  1
  C  C247  1  0.37132000  0.74574000  0.58442000  1
  C  C248  1  0.51199000  0.42247000  0.90255000  1
  C  C249  1  0.16299000  0.92247000  0.40255000  1
  C  C250  1  0.37028000  0.62028000  0.69296000  1
  C  C251  1  0.31648000  0.12028000  0.19296000  1
  C  C252  1  0.39620000  0.49588000  0.80712000  1
  C  C253  1  0.30080000  0.99588000  0.30712000  1
  C  C254  1  0.16648000  0.22947000  0.06677000  1
  C  C255  1  0.53728000  0.72947000  0.56677000  1
  C  C256  1  0.68887000  0.57877000  0.71709000  1
  C  C257  1  0.01527000  0.07877000  0.21709000  1
  C  C258  1  0.33846000  0.47061000  0.82467000  1
  C  C259  1  0.36626000  0.97061000  0.32467000  1
  C  C260  1  0.76665000  0.56825000  0.72565000  1
  C  C261  1  0.93945000  0.06825000  0.22565000  1
  C  C262  1  0.59630000  0.38692000  0.89228000  1
  C  C263  1  0.12450000  0.88692000  0.39228000  1
  C  C264  1  0.87673000  0.59807000  0.67727000  1
  C  C265  1  0.84793000  0.09807000  0.17727000  1
  C  C266  1  0.23102000  0.19473000  0.07383000  1
  C  C267  1  0.50042000  0.69473000  0.57383000  1
  C  C268  1  0.43772000  0.49365000  0.75951000  1
  C  C269  1  0.30912000  0.99365000  0.25951000  1
  C  C270  1  0.43925000  0.59298000  0.65652000  1
  C  C271  1  0.31125000  0.09298000  0.15652000  1
  C  C272  1  0.77087000  0.12753000  0.12073000  1
  C  C273  1  0.98087000  0.62753000  0.62073000  1
  C  C274  1  0.84600000  0.56030000  0.68630000  1
  C  C275  1  0.90740000  0.06030000  0.18630000  1
  C  C276  1  0.61029000  0.27066000  0.96716000  1
  C  C277  1  0.15189000  0.77066000  0.46716000  1
  C  C278  1  0.32503000  0.44305000  0.79389000  1
  C  C279  1  0.43803000  0.94305000  0.29389000  1
  C  C280  1  0.56863000  0.24049000  0.99365000  1
  C  C281  1  0.19723000  0.74049000  0.49365000  1
  C  C282  1  0.95765000  0.59245000  0.63785000  1
  C  C283  1  0.81205000  0.09245000  0.13785000  1
  C  C284  1  0.04686000  0.11917000  0.08911000  1
  C  C285  1  0.74486000  0.61917000  0.58911000  1
  C  C286  1  0.74559000  0.12451000  0.08171000  1
  C  C287  1  0.04819000  0.62451000  0.58171000  1
  C  C288  1  0.42255000  0.46716000  0.72934000  1
  C  C289  1  0.38095000  0.96716000  0.22934000  1
  C  C290  1  0.69202000  0.25306000  0.94250000  1
  C  C291  1  0.11242000  0.75306000  0.44250000  1
  C  C292  1  0.55867000  0.16441000  0.02665000  1
  C  C293  1  0.25027000  0.66441000  0.52665000  1
  C  C294  1  0.99040000  0.12380000  0.06600000  1
  C  C295  1  0.81980000  0.62380000  0.56600000  1
  C  C296  1  0.36548000  0.44250000  0.74694000  1
  C  C297  1  0.44508000  0.94250000  0.24694000  1
  C  C298  1  0.60792000  0.19288000  0.99588000  1
  C  C299  1  0.20332000  0.69288000  0.49588000  1
  C  C300  1  0.01350000  0.54830000  0.62170000  1
  C  C301  1  0.81650000  0.04830000  0.12170000  1
  C  C302  1  0.72165000  0.57752000  0.58778000  1
  C  C303  1  0.11305000  0.07752000  0.08778000  1
  C  C304  1  0.73192000  0.20611000  0.94305000  1
  C  C305  1  0.11892000  0.70611000  0.44305000  1
  C  C306  1  0.69093000  0.17533000  0.97061000  1
  C  C307  1  0.16313000  0.67533000  0.47061000  1
  C  C308  1  0.07919000  0.54821000  0.58141000  1
  C  C309  1  0.79119000  0.04821000  0.08141000  1
  C  C310  1  0.99260000  0.08840000  0.03880000  1
  C  C311  1  0.88020000  0.58840000  0.53880000  1
  C  C312  1  0.33167000  0.52274000  0.60312000  1
  C  C313  1  0.54247000  0.02274000  0.10312000  1
  C  C314  1  0.36643000  0.08562000  0.03812000  1
  C  C315  1  0.50983000  0.58562000  0.53812000  1
  C  C316  1  0.28100000  0.49244000  0.63016000  1
  C  C317  1  0.59640000  0.99244000  0.13016000  1
  C  C318  1  0.29695000  0.55303000  0.56747000  1
  C  C319  1  0.58255000  0.05303000  0.06747000  1
  C  C320  1  0.78175000  0.54156000  0.55814000  1
  C  C321  1  0.11855000  0.04156000  0.05814000  1
  C  C322  1  0.05904000  0.04686000  0.03446000  1
  C  C323  1  0.85964000  0.54686000  0.53446000  1
  C  C324  1  0.28190000  0.10050000  0.97970000  1
  C  C325  1  0.63790000  0.60050000  0.47970000  1
  C  C326  1  0.35708000  0.06375000  0.99809000  1
  C  C327  1  0.58108000  0.56375000  0.49809000  1
  C  C328  1  0.76417000  0.49873000  0.55073000  1
  C  C329  1  0.18637000  0.99873000  0.05073000  1
  C  C330  1  0.60881000  0.44508000  0.58550000  1
  C  C331  1  0.36061000  0.94508000  0.08550000  1
  C  C332  1  0.56554000  0.09745000  0.92247000  1
  C  C333  1  0.41454000  0.59745000  0.42247000  1
  C  C334  1  0.51142000  0.39228000  0.61308000  1
  C  C335  1  0.48322000  0.89228000  0.11308000  1
  H  H336  1  0.53950000  0.58380000  0.38860000  1
  H  H337  1  0.48810000  0.08380000  0.88860000  1
  H  H338  1  0.59000000  0.94300000  0.02720000  1
  H  H339  1  0.43980000  0.44300000  0.52720000  1
  H  H340  1  0.52430000  0.86180000  0.10660000  1
  H  H341  1  0.50730000  0.36180000  0.60660000  1
  H  H342  1  0.48140000  0.60780000  0.35580000  1
  H  H343  1  0.55500000  0.10780000  0.85580000  1
  H  H344  1  0.93730000  0.97750000  0.98490000  1
  H  H345  1  0.10030000  0.47750000  0.48490000  1
  H  H346  1  0.65710000  0.96580000  0.99220000  1
  H  H347  1  0.38490000  0.46580000  0.49220000  1
  H  H348  1  0.73300000  0.91540000  0.04240000  1
  H  H349  1  0.30920000  0.41540000  0.54240000  1
  H  H350  1  0.47320000  0.90570000  0.04690000  1
  H  H351  1  0.57420000  0.40570000  0.54690000  1
  H  H352  1  0.41440000  0.87530000  0.07590000  1
  H  H353  1  0.63440000  0.37530000  0.57590000  1
  H  H354  1  0.73480000  0.52390000  0.39110000  1
  H  H355  1  0.35020000  0.02390000  0.89110000  1
  H  H356  1  0.88520000  0.48090000  0.43150000  1
  H  H357  1  0.20240000  0.98090000  0.93150000  1
  H  H358  1  0.61230000  0.49720000  0.41280000  1
  H  H359  1  0.47770000  0.99720000  0.91280000  1
  H  H360  1  0.69890000  0.87310000  0.03570000  1
  H  H361  1  0.39230000  0.37310000  0.53570000  1
  H  H362  1  0.04920000  0.90820000  0.97660000  1
  H  H363  1  0.06600000  0.40820000  0.47660000  1
  H  H364  1  0.68640000  0.53020000  0.35220000  1
  H  H365  1  0.43120000  0.03020000  0.85220000  1
  H  H366  1  0.76700000  0.88840000  0.99380000  1
  H  H367  1  0.35080000  0.38840000  0.49380000  1
  H  H368  1  0.21220000  0.80550000  0.07550000  1
  H  H369  1  0.90680000  0.30550000  0.57550000  1
  H  H370  1  0.64650000  0.57530000  0.27350000  1
  H  H371  1  0.50470000  0.07530000  0.77350000  1
  H  H372  1  0.99330000  0.47960000  0.36260000  1
  H  H373  1  0.16450000  0.97960000  0.86260000  1
  H  H374  1  0.54890000  0.53390000  0.30290000  1
  H  H375  1  0.76940000  0.48850000  0.34830000  1
  H  H376  1  0.61430000  0.03390000  0.80290000  1
  H  H377  1  0.39380000  0.98850000  0.84830000  1
  H  H378  1  0.66120000  0.45710000  0.37490000  1
  H  H379  1  0.50680000  0.95710000  0.87490000  1
  H  H380  1  0.27820000  0.72650000  0.07530000  1
  H  H381  1  0.92000000  0.22650000  0.57530000  1
  H  H382  1  0.16490000  0.44770000  0.34210000  1
  H  H383  1  0.04530000  0.94770000  0.84210000  1
  H  H384  1  0.05240000  0.84790000  0.93170000  1
  H  H385  1  0.16800000  0.34790000  0.43170000  1
  H  H386  1  0.28360000  0.84760000  0.93020000  1
  H  H387  1  0.93860000  0.34760000  0.43020000  1
  H  H388  1  0.11140000  0.46650000  0.30590000  1
  H  H389  1  0.11620000  0.96650000  0.80590000  1
  H  H390  1  0.71230000  0.57550000  0.19450000  1
  H  H391  1  0.51770000  0.07550000  0.69450000  1
  H  H392  1  0.77120000  0.83640000  0.92680000  1
  H  H393  1  0.46560000  0.33640000  0.42680000  1
  H  H394  1  0.41080000  0.64420000  0.10780000  1
  H  H395  1  0.83720000  0.14420000  0.60780000  1
  H  H396  1  0.95700000  0.85540000  0.89280000  1
  H  H397  1  0.29480000  0.35540000  0.39280000  1
  H  H398  1  0.36910000  0.60660000  0.13820000  1
  H  H399  1  0.88610000  0.10660000  0.63820000  1
  H  H400  1  0.52270000  0.48920000  0.25240000  1
  H  H401  1  0.73570000  0.98920000  0.75240000  1
  H  H402  1  0.48810000  0.74760000  0.98920000  1
  H  H403  1  0.77510000  0.24760000  0.48920000  1
  H  H404  1  0.31510000  0.41790000  0.31390000  1
  H  H405  1  0.95310000  0.91790000  0.81390000  1
  H  H406  1  0.41720000  0.69710000  0.03390000  1
  H  H407  1  0.85180000  0.19710000  0.53390000  1
  H  H408  1  0.87880000  0.77790000  0.93930000  1
  H  H409  1  0.40400000  0.27790000  0.43930000  1
  H  H410  1  0.24330000  0.84300000  0.86520000  1
  H  H411  1  0.04850000  0.34300000  0.36520000  1
  H  H412  1  0.16640000  0.37540000  0.33040000  1
  H  H413  1  0.12780000  0.87540000  0.83040000  1
  H  H414  1  0.50970000  0.57590000  0.12470000  1
  H  H415  1  0.78970000  0.07590000  0.62470000  1
  H  H416  1  0.37670000  0.61140000  0.08380000  1
  H  H417  1  0.92810000  0.11140000  0.58380000  1
  H  H418  1  0.11360000  0.39380000  0.29400000  1
  H  H419  1  0.19860000  0.89380000  0.79400000  1
  H  H420  1  0.28340000  0.64780000  0.03020000  1
  H  H421  1  0.03860000  0.14780000  0.53020000  1
  H  H422  1  0.45480000  0.80570000  0.86430000  1
  H  H423  1  0.87520000  0.30570000  0.36430000  1
  H  H424  1  0.26540000  0.53570000  0.12690000  1
  H  H425  1  0.07200000  0.03570000  0.62690000  1
  H  H426  1  0.57820000  0.40740000  0.25500000  1
  H  H427  1  0.75940000  0.90740000  0.75500000  1
  H  H428  1  0.43530000  0.40960000  0.25200000  1
  H  H429  1  0.90310000  0.90960000  0.75200000  1
  H  H430  1  0.18190000  0.43930000  0.22210000  1
  H  H431  1  0.15670000  0.93930000  0.72210000  1
  H  H432  1  0.92210000  0.69410000  0.96650000  1
  H  H433  1  0.41730000  0.19410000  0.46650000  1
  H  H434  1  0.65510000  0.74800000  0.90960000  1
  H  H435  1  0.68730000  0.24800000  0.40960000  1
  H  H436  1  0.51440000  0.74500000  0.90740000  1
  H  H437  1  0.83320000  0.24500000  0.40740000  1
  H  H438  1  0.47990000  0.54690000  0.09430000  1
  H  H439  1  0.87890000  0.04690000  0.59430000  1
  H  H440  1  0.24210000  0.65170000  0.98850000  1
  H  H441  1  0.11770000  0.15170000  0.48850000  1
  H  H442  1  0.24130000  0.60890000  0.02390000  1
  H  H443  1  0.12590000  0.10890000  0.52390000  1
  H  H444  1  0.22460000  0.54240000  0.08460000  1
  H  H445  1  0.14840000  0.04240000  0.58460000  1
  H  H446  1  0.02710000  0.63740000  0.97960000  1
  H  H447  1  0.35590000  0.13740000  0.47960000  1
  H  H448  1  0.88740000  0.65790000  0.94770000  1
  H  H449  1  0.50700000  0.15790000  0.44770000  1
  H  H450  1  0.23920000  0.49380000  0.11160000  1
  H  H451  1  0.15540000  0.99380000  0.61160000  1
  H  H452  1  0.76700000  0.68610000  0.91790000  1
  H  H453  1  0.62900000  0.18610000  0.41790000  1
  H  H454  1  0.38810000  0.78990000  0.81170000  1
  H  H455  1  0.01030000  0.28990000  0.31170000  1
  H  H456  1  0.99260000  0.70600000  0.89380000  1
  H  H457  1  0.40760000  0.20600000  0.39380000  1
  H  H458  1  0.30200000  0.42680000  0.16360000  1
  H  H459  1  0.10760000  0.92680000  0.66360000  1
  H  H460  1  0.81180000  0.30250000  0.28470000  1
  H  H461  1  0.60100000  0.80250000  0.78470000  1
  H  H462  1  0.39050000  0.58720000  0.99720000  1
  H  H463  1  0.02510000  0.08720000  0.49720000  1
  H  H464  1  0.38280000  0.52720000  0.05700000  1
  H  H465  1  0.03300000  0.02720000  0.55700000  1
  H  H466  1  0.01590000  0.43170000  0.15210000  1
  H  H467  1  0.40030000  0.93170000  0.65210000  1
  H  H468  1  0.78620000  0.43020000  0.15240000  1
  H  H469  1  0.63120000  0.93020000  0.65240000  1
  H  H470  1  0.38170000  0.62510000  0.95710000  1
  H  H471  1  0.03610000  0.12510000  0.45710000  1
  H  H472  1  0.97420000  0.47660000  0.09180000  1
  H  H473  1  0.45740000  0.97660000  0.59180000  1
  H  H474  1  0.68090000  0.36430000  0.19430000  1
  H  H475  1  0.76050000  0.86430000  0.69430000  1
  H  H476  1  0.13390000  0.56850000  0.98090000  1
  H  H477  1  0.31670000  0.06850000  0.48090000  1
  H  H478  1  0.95820000  0.66960000  0.87540000  1
  H  H479  1  0.49680000  0.16960000  0.37540000  1
  H  H480  1  0.15020000  0.39280000  0.14460000  1
  H  H481  1  0.31240000  0.89280000  0.64460000  1
  H  H482  1  0.35070000  0.49220000  0.03420000  1
  H  H483  1  0.12290000  0.99220000  0.53420000  1
  H  H484  1  0.89150000  0.36520000  0.15700000  1
  H  H485  1  0.58630000  0.86520000  0.65700000  1
  H  H486  1  0.80020000  0.31170000  0.21010000  1
  H  H487  1  0.67800000  0.81170000  0.71010000  1
  H  H488  1  0.38570000  0.71530000  0.80250000  1
  H  H489  1  0.09650000  0.21530000  0.30250000  1
  H  H490  1  0.07780000  0.48490000  0.02250000  1
  H  H491  1  0.41480000  0.98490000  0.52250000  1
  H  H492  1  0.92220000  0.51510000  0.97750000  1
  H  H493  1  0.58520000  0.01510000  0.47750000  1
  H  H494  1  0.61430000  0.28470000  0.19750000  1
  H  H495  1  0.90350000  0.78470000  0.69750000  1
  H  H496  1  0.19980000  0.68830000  0.78990000  1
  H  H497  1  0.32200000  0.18830000  0.28990000  1
  H  H498  1  0.10850000  0.63480000  0.84300000  1
  H  H499  1  0.41370000  0.13480000  0.34300000  1
  H  H500  1  0.64930000  0.50780000  0.96580000  1
  H  H501  1  0.87710000  0.00780000  0.46580000  1
  H  H502  1  0.84980000  0.60720000  0.85540000  1
  H  H503  1  0.68760000  0.10720000  0.35540000  1
  H  H504  1  0.04180000  0.33040000  0.12460000  1
  H  H505  1  0.50320000  0.83040000  0.62460000  1
  H  H506  1  0.86610000  0.43150000  0.01910000  1
  H  H507  1  0.68330000  0.93150000  0.51910000  1
  H  H508  1  0.31910000  0.63570000  0.80570000  1
  H  H509  1  0.23950000  0.13570000  0.30570000  1
  H  H510  1  0.02580000  0.52340000  0.90820000  1
  H  H511  1  0.54260000  0.02340000  0.40820000  1
  H  H512  1  0.61830000  0.37490000  0.04290000  1
  H  H513  1  0.96390000  0.87490000  0.54290000  1
  H  H514  1  0.21380000  0.56980000  0.84760000  1
  H  H515  1  0.36880000  0.06980000  0.34760000  1
  H  H516  1  0.98410000  0.56830000  0.84790000  1
  H  H517  1  0.59970000  0.06830000  0.34790000  1
  H  H518  1  0.61720000  0.47280000  0.94300000  1
  H  H519  1  0.96700000  0.97280000  0.44300000  1
  H  H520  1  0.60950000  0.41280000  0.00280000  1
  H  H521  1  0.97490000  0.91280000  0.50280000  1
  H  H522  1  0.18820000  0.69750000  0.71530000  1
  H  H523  1  0.39900000  0.19750000  0.21530000  1
  H  H524  1  0.69800000  0.57320000  0.83640000  1
  H  H525  1  0.89240000  0.07320000  0.33640000  1
  H  H526  1  0.00740000  0.29400000  0.10620000  1
  H  H527  1  0.59240000  0.79400000  0.60620000  1
  H  H528  1  0.61190000  0.21010000  0.18830000  1
  H  H529  1  0.98970000  0.71010000  0.68830000  1
  H  H530  1  0.23300000  0.31390000  0.08210000  1
  H  H531  1  0.37100000  0.81390000  0.58210000  1
  H  H532  1  0.76080000  0.50620000  0.88840000  1
  H  H533  1  0.84460000  0.00620000  0.38840000  1
  H  H534  1  0.11260000  0.34210000  0.05230000  1
  H  H535  1  0.49300000  0.84210000  0.55230000  1
  H  H536  1  0.97290000  0.36260000  0.02040000  1
  H  H537  1  0.64410000  0.86260000  0.52040000  1
  H  H538  1  0.77540000  0.45760000  0.91540000  1
  H  H539  1  0.85160000  0.95760000  0.41540000  1
  H  H540  1  0.75870000  0.39110000  0.97610000  1
  H  H541  1  0.87410000  0.89110000  0.47610000  1
  H  H542  1  0.75790000  0.34830000  0.01150000  1
  H  H543  1  0.88230000  0.84830000  0.51150000  1
  H  H544  1  0.52010000  0.45310000  0.90570000  1
  H  H545  1  0.12110000  0.95310000  0.40570000  1
  H  H546  1  0.48560000  0.25500000  0.09260000  1
  H  H547  1  0.16680000  0.75500000  0.59260000  1
  H  H548  1  0.34490000  0.25200000  0.09040000  1
  H  H549  1  0.31270000  0.75200000  0.59040000  1
  H  H550  1  0.07790000  0.30590000  0.03350000  1
  H  H551  1  0.58270000  0.80590000  0.53350000  1
  H  H552  1  0.81810000  0.56070000  0.77790000  1
  H  H553  1  0.84330000  0.06070000  0.27790000  1
  H  H554  1  0.56470000  0.59040000  0.74800000  1
  H  H555  1  0.09690000  0.09040000  0.24800000  1
  H  H556  1  0.42180000  0.59260000  0.74500000  1
  H  H557  1  0.24060000  0.09260000  0.24500000  1
  H  H558  1  0.73460000  0.46430000  0.87310000  1
  H  H559  1  0.92800000  0.96430000  0.37310000  1
  H  H560  1  0.54520000  0.19430000  0.13570000  1
  H  H561  1  0.12480000  0.69430000  0.63570000  1
  H  H562  1  0.71660000  0.35220000  0.96980000  1
  H  H563  1  0.96140000  0.85220000  0.46980000  1
  H  H564  1  0.88640000  0.60620000  0.70600000  1
  H  H565  1  0.80140000  0.10620000  0.20600000  1
  H  H566  1  0.62330000  0.38860000  0.91620000  1
  H  H567  1  0.07190000  0.88860000  0.41620000  1
  H  H568  1  0.49030000  0.42410000  0.87530000  1
  H  H569  1  0.21030000  0.92410000  0.37530000  1
  H  H570  1  0.83360000  0.62460000  0.66960000  1
  H  H571  1  0.87220000  0.12460000  0.16960000  1
  H  H572  1  0.75670000  0.15700000  0.13480000  1
  H  H573  1  0.95150000  0.65700000  0.63480000  1
  H  H574  1  0.12120000  0.22210000  0.06070000  1
  H  H575  1  0.59600000  0.72210000  0.56070000  1
  H  H576  1  0.58280000  0.30290000  0.96610000  1
  H  H577  1  0.14820000  0.80290000  0.46610000  1
  H  H578  1  0.68490000  0.58210000  0.68610000  1
  H  H579  1  0.04690000  0.08210000  0.18610000  1
  H  H580  1  0.51190000  0.25240000  0.01080000  1
  H  H581  1  0.22490000  0.75240000  0.51080000  1
  H  H582  1  0.47730000  0.51080000  0.74760000  1
  H  H583  1  0.26430000  0.01080000  0.24760000  1
  H  H584  1  0.63090000  0.39340000  0.86180000  1
  H  H585  1  0.11390000  0.89340000  0.36180000  1
  H  H586  1  0.04300000  0.14460000  0.10720000  1
  H  H587  1  0.70520000  0.64460000  0.60720000  1
  H  H588  1  0.58920000  0.35580000  0.89220000  1
  H  H589  1  0.16280000  0.85580000  0.39220000  1
  H  H590  1  0.22880000  0.16360000  0.07320000  1
  H  H591  1  0.53440000  0.66360000  0.57320000  1
  H  H592  1  0.28770000  0.42450000  0.80550000  1
  H  H593  1  0.48230000  0.92450000  0.30550000  1
  H  H594  1  0.88860000  0.53350000  0.69410000  1
  H  H595  1  0.88380000  0.03350000  0.19410000  1
  H  H596  1  0.71640000  0.15240000  0.06980000  1
  H  H597  1  0.06140000  0.65240000  0.56980000  1
  H  H598  1  0.94760000  0.15210000  0.06830000  1
  H  H599  1  0.83200000  0.65210000  0.56830000  1
  H  H600  1  0.83510000  0.55230000  0.65790000  1
  H  H601  1  0.95470000  0.05230000  0.15790000  1
  H  H602  1  0.72180000  0.27350000  0.92470000  1
  H  H603  1  0.08000000  0.77350000  0.42470000  1
  H  H604  1  0.33880000  0.54290000  0.62510000  1
  H  H605  1  0.49320000  0.04290000  0.12510000  1
  H  H606  1  0.23060000  0.51150000  0.65170000  1
  H  H607  1  0.45110000  0.46610000  0.69710000  1
  H  H608  1  0.60620000  0.01150000  0.15170000  1
  H  H609  1  0.38570000  0.96610000  0.19710000  1
  H  H610  1  0.00670000  0.52040000  0.63740000  1
  H  H611  1  0.83550000  0.02040000  0.13740000  1
  H  H612  1  0.35350000  0.42470000  0.72650000  1
  H  H613  1  0.49530000  0.92470000  0.22650000  1
  H  H614  1  0.78780000  0.19450000  0.92450000  1
  H  H615  1  0.09320000  0.69450000  0.42450000  1
  H  H616  1  0.23300000  0.11160000  0.00620000  1
  H  H617  1  0.64920000  0.61160000  0.50620000  1
  H  H618  1  0.31360000  0.46980000  0.64780000  1
  H  H619  1  0.56880000  0.96980000  0.14780000  1
  H  H620  1  0.95080000  0.09180000  0.02340000  1
  H  H621  1  0.93400000  0.59180000  0.52340000  1
  H  H622  1  0.30110000  0.12690000  0.96430000  1
  H  H623  1  0.60770000  0.62690000  0.46430000  1
  H  H624  1  0.38770000  0.50280000  0.58720000  1
  H  H625  1  0.52230000  0.00280000  0.08720000  1
  H  H626  1  0.11480000  0.51910000  0.56850000  1
  H  H627  1  0.79760000  0.01910000  0.06850000  1
  H  H628  1  0.26520000  0.47610000  0.60890000  1
  H  H629  1  0.64980000  0.97610000  0.10890000  1
  H  H630  1  0.58560000  0.12470000  0.92410000  1
  H  H631  1  0.36560000  0.62470000  0.42410000  1
  H  H632  1  0.52680000  0.09430000  0.95310000  1
  H  H633  1  0.42580000  0.59430000  0.45310000  1
  H  H634  1  0.26700000  0.08460000  0.95760000  1
  H  H635  1  0.69080000  0.58460000  0.45760000  1
  H  H636  1  0.34290000  0.03420000  0.00780000  1
  H  H637  1  0.61510000  0.53420000  0.50780000  1
  H  H638  1  0.06270000  0.02250000  0.01510000  1
  H  H639  1  0.89970000  0.52250000  0.51510000  1
  H  H640  1  0.51860000  0.39220000  0.64420000  1
  H  H641  1  0.44500000  0.89220000  0.14420000  1
  H  H642  1  0.47570000  0.13820000  0.89340000  1
  H  H643  1  0.49270000  0.63820000  0.39340000  1
  H  H644  1  0.41000000  0.05700000  0.97280000  1
  H  H645  1  0.56020000  0.55700000  0.47280000  1
  H  H646  1  0.46050000  0.41620000  0.61140000  1
  H  H647  1  0.51190000  0.91620000  0.11140000  1
  Mn  Mn648  1  0.29549000  0.91999000  0.99825000  1
  Mn  Mn649  1  0.78627000  0.41999000  0.49825000  1
  Mn  Mn650  1  0.40276000  0.47162000  0.37998000  1
  Mn  Mn651  1  0.74564000  0.97162000  0.87998000  1
  Mn  Mn652  1  0.58719000  0.85705000  0.91617000  1
  Mn  Mn653  1  0.63959000  0.35705000  0.41617000  1
  Mn  Mn654  1  0.62562000  0.62002000  0.97162000  1
  Mn  Mn655  1  0.78274000  0.12002000  0.47162000  1
  Mn  Mn656  1  0.70626000  0.49825000  0.08001000  1
  Mn  Mn657  1  0.71548000  0.99825000  0.58001000  1
  Mn  Mn658  1  0.49664000  0.41617000  0.14295000  1
  Mn  Mn659  1  0.94424000  0.91617000  0.64295000  1
  Mn  Mn660  1  0.50336000  0.58383000  0.85705000  1
  Mn  Mn661  1  0.05576000  0.08383000  0.35705000  1
  Mn  Mn662  1  0.29374000  0.50175000  0.91999000  1
  Mn  Mn663  1  0.28452000  0.00175000  0.41999000  1
  Mn  Mn664  1  0.37438000  0.37998000  0.02838000  1
  Mn  Mn665  1  0.21726000  0.87998000  0.52838000  1
  Mn  Mn666  1  0.41281000  0.14295000  0.08383000  1
  Mn  Mn667  1  0.36041000  0.64295000  0.58383000  1
  Mn  Mn668  1  0.59724000  0.52838000  0.62002000  1
  Mn  Mn669  1  0.25436000  0.02838000  0.12002000  1
  Mn  Mn670  1  0.70451000  0.08001000  0.00175000  1
  Mn  Mn671  1  0.21373000  0.58001000  0.50175000  1
  N  N672  1  0.31943000  0.55037000  0.43857000  1
  N  N673  1  0.69163000  0.05037000  0.93857000  1
  N  N674  1  0.30902000  0.50757000  0.42719000  1
  N  N675  1  0.75622000  0.00757000  0.92719000  1
  N  N676  1  0.24121000  0.91328000  0.93910000  1
  N  N677  1  0.90641000  0.41328000  0.43910000  1
  N  N678  1  0.40510000  0.88047000  0.96787000  1
  N  N679  1  0.74656000  0.38047000  0.46787000  1
  N  N680  1  0.48894000  0.42695000  0.41977000  1
  N  N681  1  0.66434000  0.92695000  0.91977000  1
  N  N682  1  0.45569000  0.90331000  0.93431000  1
  N  N683  1  0.70669000  0.40331000  0.43431000  1
  N  N684  1  0.56030000  0.40014000  0.38778000  1
  N  N685  1  0.65178000  0.90014000  0.88778000  1
  N  N686  1  0.70139000  0.79783000  0.91819000  1
  N  N687  1  0.58259000  0.29783000  0.41819000  1
  N  N688  1  0.38042000  0.41819000  0.20217000  1
  N  N689  1  0.99922000  0.91819000  0.70217000  1
  N  N690  1  0.63020000  0.56143000  0.05037000  1
  N  N691  1  0.75800000  0.06143000  0.55037000  1
  N  N692  1  0.62703000  0.46787000  0.11953000  1
  N  N693  1  0.78557000  0.96787000  0.61953000  1
  N  N694  1  0.68341000  0.57281000  0.00757000  1
  N  N695  1  0.73621000  0.07281000  0.50757000  1
  N  N696  1  0.61000000  0.43431000  0.09669000  1
  N  N697  1  0.85900000  0.93431000  0.59669000  1
  N  N698  1  0.81969000  0.43910000  0.08672000  1
  N  N699  1  0.65449000  0.93910000  0.58672000  1
  N  N700  1  0.53956000  0.61222000  0.90014000  1
  N  N701  1  0.94808000  0.11222000  0.40014000  1
  N  N702  1  0.58411000  0.58023000  0.92695000  1
  N  N703  1  0.90871000  0.08023000  0.42695000  1
  N  N704  1  0.41589000  0.41977000  0.07305000  1
  N  N705  1  0.09129000  0.91977000  0.57305000  1
  N  N706  1  0.46044000  0.38778000  0.09986000  1
  N  N707  1  0.05192000  0.88778000  0.59986000  1
  N  N708  1  0.18031000  0.56090000  0.91328000  1
  N  N709  1  0.34551000  0.06090000  0.41328000  1
  N  N710  1  0.39000000  0.56569000  0.90331000  1
  N  N711  1  0.14100000  0.06569000  0.40331000  1
  N  N712  1  0.31659000  0.42719000  0.99243000  1
  N  N713  1  0.26379000  0.92719000  0.49243000  1
  N  N714  1  0.37297000  0.53213000  0.88047000  1
  N  N715  1  0.21443000  0.03213000  0.38047000  1
  N  N716  1  0.36980000  0.43857000  0.94963000  1
  N  N717  1  0.24200000  0.93857000  0.44963000  1
  N  N718  1  0.61958000  0.58181000  0.79783000  1
  N  N719  1  0.00078000  0.08181000  0.29783000  1
  N  N720  1  0.29861000  0.20217000  0.08181000  1
  N  N721  1  0.41741000  0.70217000  0.58181000  1
  N  N722  1  0.43970000  0.59986000  0.61222000  1
  N  N723  1  0.34822000  0.09986000  0.11222000  1
  N  N724  1  0.54431000  0.09669000  0.06569000  1
  N  N725  1  0.29331000  0.59669000  0.56569000  1
  N  N726  1  0.51106000  0.57305000  0.58023000  1
  N  N727  1  0.33566000  0.07305000  0.08023000  1
  N  N728  1  0.59490000  0.11953000  0.03213000  1
  N  N729  1  0.25344000  0.61953000  0.53213000  1
  N  N730  1  0.75879000  0.08672000  0.06090000  1
  N  N731  1  0.09359000  0.58672000  0.56090000  1
  N  N732  1  0.69098000  0.49243000  0.57281000  1
  N  N733  1  0.24378000  0.99243000  0.07281000  1
  N  N734  1  0.68057000  0.44963000  0.56143000  1
  N  N735  1  0.30837000  0.94963000  0.06143000  1
  O  O736  1  0.18908000  0.96776000  0.02278000  1
  O  O737  1  0.82038000  0.46776000  0.52278000  1
  O  O738  1  0.73167000  0.46569000  0.45955000  1
  O  O739  1  0.34309000  0.96569000  0.95955000  1
  O  O740  1  0.44320000  0.52453000  0.38391000  1
  O  O741  1  0.64836000  0.02453000  0.88391000  1
  O  O742  1  0.26524000  0.86910000  0.03028000  1
  O  O743  1  0.83538000  0.36910000  0.53028000  1
  O  O744  1  0.59605000  0.88185000  0.97133000  1
  O  O745  1  0.55077000  0.38185000  0.47133000  1
  O  O746  1  0.34853000  0.42586000  0.38428000  1
  O  O747  1  0.84133000  0.92586000  0.88428000  1
  O  O748  1  0.50091000  0.43774000  0.33190000  1
  O  O749  1  0.72945000  0.93774000  0.83190000  1
  O  O750  1  0.51776000  0.81694000  0.95182000  1
  O  O751  1  0.71348000  0.31694000  0.45182000  1
  O  O752  1  0.58842000  0.83955000  0.85835000  1
  O  O753  1  0.71368000  0.33955000  0.35835000  1
  O  O754  1  0.70448000  0.53028000  0.13090000  1
  O  O755  1  0.63434000  0.03028000  0.63090000  1
  O  O756  1  0.53227000  0.61609000  0.02453000  1
  O  O757  1  0.82711000  0.11609000  0.52453000  1
  O  O758  1  0.53042000  0.45182000  0.18306000  1
  O  O759  1  0.83470000  0.95182000  0.68306000  1
  O  O760  1  0.56135000  0.66810000  0.93774000  1
  O  O761  1  0.83281000  0.16810000  0.43774000  1
  O  O762  1  0.43262000  0.47133000  0.11815000  1
  O  O763  1  0.97790000  0.97133000  0.61815000  1
  O  O764  1  0.78814000  0.52278000  0.03224000  1
  O  O765  1  0.65684000  0.02278000  0.53224000  1
  O  O766  1  0.72561000  0.61572000  0.92586000  1
  O  O767  1  0.73281000  0.11572000  0.42586000  1
  O  O768  1  0.55323000  0.35835000  0.16045000  1
  O  O769  1  0.92797000  0.85835000  0.66045000  1
  O  O770  1  0.30264000  0.54045000  0.96569000  1
  O  O771  1  0.19122000  0.04045000  0.46569000  1
  O  O772  1  0.69736000  0.45955000  0.03431000  1
  O  O773  1  0.80878000  0.95955000  0.53431000  1
  O  O774  1  0.44677000  0.64165000  0.83955000  1
  O  O775  1  0.07203000  0.14165000  0.33955000  1
  O  O776  1  0.27439000  0.38428000  0.07414000  1
  O  O777  1  0.26719000  0.88428000  0.57414000  1
  O  O778  1  0.21186000  0.47722000  0.96776000  1
  O  O779  1  0.34316000  0.97722000  0.46776000  1
  O  O780  1  0.56738000  0.52867000  0.88185000  1
  O  O781  1  0.02210000  0.02867000  0.38185000  1
  O  O782  1  0.43865000  0.33190000  0.06226000  1
  O  O783  1  0.16719000  0.83190000  0.56226000  1
  O  O784  1  0.46958000  0.54818000  0.81694000  1
  O  O785  1  0.16530000  0.04818000  0.31694000  1
  O  O786  1  0.46773000  0.38391000  0.97547000  1
  O  O787  1  0.17289000  0.88391000  0.47547000  1
  O  O788  1  0.29552000  0.46972000  0.86910000  1
  O  O789  1  0.36566000  0.96972000  0.36910000  1
  O  O790  1  0.41158000  0.16045000  0.14165000  1
  O  O791  1  0.28632000  0.66045000  0.64165000  1
  O  O792  1  0.48224000  0.18306000  0.04818000  1
  O  O793  1  0.28652000  0.68306000  0.54818000  1
  O  O794  1  0.49909000  0.56226000  0.66810000  1
  O  O795  1  0.27055000  0.06226000  0.16810000  1
  O  O796  1  0.65147000  0.57414000  0.61572000  1
  O  O797  1  0.15867000  0.07414000  0.11572000  1
  O  O798  1  0.40395000  0.11815000  0.02867000  1
  O  O799  1  0.44923000  0.61815000  0.52867000  1
  O  O800  1  0.73476000  0.13090000  0.96972000  1
  O  O801  1  0.16462000  0.63090000  0.46972000  1
  O  O802  1  0.55680000  0.47547000  0.61609000  1
  O  O803  1  0.35164000  0.97547000  0.11609000  1
  O  O804  1  0.26833000  0.53431000  0.54045000  1
  O  O805  1  0.65691000  0.03431000  0.04045000  1
  O  O806  1  0.81092000  0.03224000  0.97722000  1
  O  O807  1  0.17962000  0.53224000  0.47722000  1
