# generated using pymatgen
data_CdH3(C3O2)3
_symmetry_space_group_name_H-M   'P 1'
_cell_length_a   10.03550000
_cell_length_b   12.81900000
_cell_length_c   15.47970000
_cell_angle_alpha   90.00000000
_cell_angle_beta   102.48600000
_cell_angle_gamma   90.00000000
_symmetry_Int_Tables_number   1
_chemical_formula_structural   CdH3(C3O2)3
_chemical_formula_sum   'Cd4 H12 C36 O24'
_cell_volume   1944.28859149
_cell_formula_units_Z   4
loop_
 _symmetry_equiv_pos_site_id
 _symmetry_equiv_pos_as_xyz
  1  'x, y, z'
loop_
 _atom_site_type_symbol
 _atom_site_label
 _atom_site_symmetry_multiplicity
 _atom_site_fract_x
 _atom_site_fract_y
 _atom_site_fract_z
 _atom_site_occupancy
  Cd  Cd0  1  0.17871000  0.53395000  0.59169000  1
  Cd  Cd1  1  0.17871000  0.96605000  0.09169000  1
  Cd  Cd2  1  0.82129000  0.03395000  0.90832000  1
  Cd  Cd3  1  0.82129000  0.46605000  0.40832000  1
  H  H4  1  0.08240000  0.21710000  0.31250000  1
  H  H5  1  0.08240000  0.28290000  0.81250000  1
  H  H6  1  0.36030000  0.08260000  0.94590000  1
  H  H7  1  0.36030000  0.41740000  0.44590000  1
  H  H8  1  0.46590000  0.21020000  0.27760000  1
  H  H9  1  0.46590000  0.28980000  0.77760000  1
  H  H10  1  0.53410000  0.71020000  0.22240000  1
  H  H11  1  0.53410000  0.78980000  0.72240000  1
  H  H12  1  0.63970000  0.58260000  0.55410000  1
  H  H13  1  0.63970000  0.91740000  0.05410000  1
  H  H14  1  0.91760000  0.71710000  0.18750000  1
  H  H15  1  0.91760000  0.78290000  0.68750000  1
  C  C16  1  0.09312000  0.11643000  0.91576000  1
  C  C17  1  0.09312000  0.38357000  0.41576000  1
  C  C18  1  0.17068000  0.24369000  0.32471000  1
  C  C19  1  0.17068000  0.25631000  0.82471000  1
  C  C20  1  0.20329000  0.17271000  0.88316000  1
  C  C21  1  0.20329000  0.32729000  0.38316000  1
  C  C22  1  0.23199000  0.11584000  0.21627000  1
  C  C23  1  0.23199000  0.38416000  0.71627000  1
  C  C24  1  0.26767000  0.19990000  0.28468000  1
  C  C25  1  0.26767000  0.30010000  0.78468000  1
  C  C26  1  0.33705000  0.13623000  0.90496000  1
  C  C27  1  0.33705000  0.36377000  0.40496000  1
  C  C28  1  0.40046000  0.23883000  0.30490000  1
  C  C29  1  0.40046000  0.26117000  0.80490000  1
  C  C30  1  0.42126000  0.63836000  0.61735000  1
  C  C31  1  0.42126000  0.86164000  0.11735000  1
  C  C32  1  0.43675000  0.18025000  0.86512000  1
  C  C33  1  0.43675000  0.31975000  0.36512000  1
  C  C34  1  0.56325000  0.68025000  0.63488000  1
  C  C35  1  0.56325000  0.81975000  0.13488000  1
  C  C36  1  0.57874000  0.13836000  0.88265000  1
  C  C37  1  0.57874000  0.36164000  0.38265000  1
  C  C38  1  0.59954000  0.73883000  0.19510000  1
  C  C39  1  0.59954000  0.76117000  0.69510000  1
  C  C40  1  0.66295000  0.63623000  0.59504000  1
  C  C41  1  0.66295000  0.86377000  0.09504000  1
  C  C42  1  0.73233000  0.69990000  0.21532000  1
  C  C43  1  0.73233000  0.80010000  0.71532000  1
  C  C44  1  0.76801000  0.61584000  0.28373000  1
  C  C45  1  0.76801000  0.88416000  0.78373000  1
  C  C46  1  0.79671000  0.67271000  0.61684000  1
  C  C47  1  0.79671000  0.82729000  0.11684000  1
  C  C48  1  0.82932000  0.74369000  0.17529000  1
  C  C49  1  0.82932000  0.75631000  0.67529000  1
  C  C50  1  0.90688000  0.61643000  0.58424000  1
  C  C51  1  0.90688000  0.88357000  0.08424000  1
  O  O52  1  0.02586000  0.65434000  0.60373000  1
  O  O53  1  0.02586000  0.84566000  0.10373000  1
  O  O54  1  0.12013000  0.03125000  0.95438000  1
  O  O55  1  0.12013000  0.46875000  0.45438000  1
  O  O56  1  0.12511000  0.06568000  0.20914000  1
  O  O57  1  0.12511000  0.43432000  0.70914000  1
  O  O58  1  0.31166000  0.09953000  0.16610000  1
  O  O59  1  0.31166000  0.40047000  0.66610000  1
  O  O60  1  0.34864000  0.65521000  0.67227000  1
  O  O61  1  0.34864000  0.84479000  0.17227000  1
  O  O62  1  0.37865000  0.58608000  0.54833000  1
  O  O63  1  0.37865000  0.91392000  0.04833000  1
  O  O64  1  0.62135000  0.08608000  0.95167000  1
  O  O65  1  0.62135000  0.41392000  0.45167000  1
  O  O66  1  0.65136000  0.15521000  0.82773000  1
  O  O67  1  0.65136000  0.34479000  0.32773000  1
  O  O68  1  0.68834000  0.59953000  0.33390000  1
  O  O69  1  0.68834000  0.90047000  0.83390000  1
  O  O70  1  0.87489000  0.56568000  0.29086000  1
  O  O71  1  0.87489000  0.93432000  0.79086000  1
  O  O72  1  0.87987000  0.53125000  0.54562000  1
  O  O73  1  0.87987000  0.96875000  0.04562000  1
  O  O74  1  0.97414000  0.15434000  0.89627000  1
  O  O75  1  0.97414000  0.34566000  0.39627000  1
