# generated using pymatgen
data_EuH2C7(NO3)2
_symmetry_space_group_name_H-M   'P 1'
_cell_length_a   10.94300000
_cell_length_b   11.82800000
_cell_length_c   19.26100000
_cell_angle_alpha   90.00000000
_cell_angle_beta   90.00000000
_cell_angle_gamma   90.00000000
_symmetry_Int_Tables_number   1
_chemical_formula_structural   EuH2C7(NO3)2
_chemical_formula_sum   'Eu8 H16 C56 N16 O48'
_cell_volume   2493.02449884
_cell_formula_units_Z   8
loop_
 _symmetry_equiv_pos_site_id
 _symmetry_equiv_pos_as_xyz
  1  'x, y, z'
loop_
 _atom_site_type_symbol
 _atom_site_label
 _atom_site_symmetry_multiplicity
 _atom_site_fract_x
 _atom_site_fract_y
 _atom_site_fract_z
 _atom_site_occupancy
  Eu  Eu0  1  0.11894000  0.52847000  0.31746000  1
  Eu  Eu1  1  0.13755000  0.15751000  0.60301000  1
  Eu  Eu2  1  0.36245000  0.65751000  0.60301000  1
  Eu  Eu3  1  0.38106000  0.02847000  0.31746000  1
  Eu  Eu4  1  0.61894000  0.97153000  0.81746000  1
  Eu  Eu5  1  0.63755000  0.34249000  0.10301000  1
  Eu  Eu6  1  0.86245000  0.84249000  0.10301000  1
  Eu  Eu7  1  0.88106000  0.47153000  0.81746000  1
  H  H8  1  0.00640000  0.74110000  0.70290000  1
  H  H9  1  0.12960000  0.89850000  0.21670000  1
  H  H10  1  0.14560000  0.50550000  0.70770000  1
  H  H11  1  0.22950000  0.24990000  0.87250000  1
  H  H12  1  0.27050000  0.74990000  0.87250000  1
  H  H13  1  0.35440000  0.00550000  0.70770000  1
  H  H14  1  0.37040000  0.39850000  0.21670000  1
  H  H15  1  0.49360000  0.24110000  0.70290000  1
  H  H16  1  0.50640000  0.75890000  0.20290000  1
  H  H17  1  0.62960000  0.60150000  0.71670000  1
  H  H18  1  0.64560000  0.99450000  0.20770000  1
  H  H19  1  0.72950000  0.25010000  0.37250000  1
  H  H20  1  0.77050000  0.75010000  0.37250000  1
  H  H21  1  0.85440000  0.49450000  0.20770000  1
  H  H22  1  0.87040000  0.10150000  0.71670000  1
  H  H23  1  0.99360000  0.25890000  0.20290000  1
  C  C24  1  0.02080000  0.18460000  0.20630000  1
  C  C25  1  0.04050000  0.90270000  0.67630000  1
  C  C26  1  0.05150000  0.66000000  0.90620000  1
  C  C27  1  0.08650000  0.26730000  0.75880000  1
  C  C28  1  0.10170000  0.97260000  0.21410000  1
  C  C29  1  0.12660000  0.15620000  0.24220000  1
  C  C30  1  0.13560000  0.64210000  0.84400000  1
  C  C31  1  0.16030000  0.88400000  0.63760000  1
  C  C32  1  0.16870000  0.55840000  0.74090000  1
  C  C33  1  0.17720000  0.62050000  0.47310000  1
  C  C34  1  0.19420000  0.19220000  0.77680000  1
  C  C35  1  0.20110000  0.06820000  0.44860000  1
  C  C36  1  0.20380000  0.24920000  0.27740000  1
  C  C37  1  0.24270000  0.70310000  0.83710000  1
  C  C38  1  0.25730000  0.20310000  0.83710000  1
  C  C39  1  0.29620000  0.74920000  0.27740000  1
  C  C40  1  0.29890000  0.56820000  0.44860000  1
  C  C41  1  0.30580000  0.69220000  0.77680000  1
  C  C42  1  0.32280000  0.12050000  0.47310000  1
  C  C43  1  0.33130000  0.05840000  0.74090000  1
  C  C44  1  0.33970000  0.38400000  0.63760000  1
  C  C45  1  0.36440000  0.14210000  0.84400000  1
  C  C46  1  0.37340000  0.65620000  0.24220000  1
  C  C47  1  0.39830000  0.47260000  0.21410000  1
  C  C48  1  0.41350000  0.76730000  0.75880000  1
  C  C49  1  0.44850000  0.16000000  0.90620000  1
  C  C50  1  0.45950000  0.40270000  0.67630000  1
  C  C51  1  0.47920000  0.68460000  0.20630000  1
  C  C52  1  0.52080000  0.31540000  0.70630000  1
  C  C53  1  0.54050000  0.59730000  0.17630000  1
  C  C54  1  0.55150000  0.84000000  0.40620000  1
  C  C55  1  0.58650000  0.23270000  0.25880000  1
  C  C56  1  0.60170000  0.52740000  0.71410000  1
  C  C57  1  0.62660000  0.34380000  0.74220000  1
  C  C58  1  0.63560000  0.85790000  0.34400000  1
  C  C59  1  0.66030000  0.61600000  0.13760000  1
  C  C60  1  0.66870000  0.94160000  0.24090000  1
  C  C61  1  0.67720000  0.87950000  0.97310000  1
  C  C62  1  0.69420000  0.30780000  0.27680000  1
  C  C63  1  0.70110000  0.43180000  0.94860000  1
  C  C64  1  0.70380000  0.25080000  0.77740000  1
  C  C65  1  0.74270000  0.79690000  0.33710000  1
  C  C66  1  0.75730000  0.29690000  0.33710000  1
  C  C67  1  0.79620000  0.75080000  0.77740000  1
  C  C68  1  0.79890000  0.93180000  0.94860000  1
  C  C69  1  0.80580000  0.80780000  0.27680000  1
  C  C70  1  0.82280000  0.37950000  0.97310000  1
  C  C71  1  0.83130000  0.44160000  0.24090000  1
  C  C72  1  0.83970000  0.11600000  0.13760000  1
  C  C73  1  0.86440000  0.35790000  0.34400000  1
  C  C74  1  0.87340000  0.84380000  0.74220000  1
  C  C75  1  0.89830000  0.02740000  0.71410000  1
  C  C76  1  0.91350000  0.73270000  0.25880000  1
  C  C77  1  0.94850000  0.34000000  0.40620000  1
  C  C78  1  0.95950000  0.09730000  0.17630000  1
  C  C79  1  0.97920000  0.81540000  0.70630000  1
  N  N80  1  0.00110000  0.00930000  0.67730000  1
  N  N81  1  0.09740000  0.56840000  0.79570000  1
  N  N82  1  0.16750000  0.05110000  0.24730000  1
  N  N83  1  0.23010000  0.11610000  0.72830000  1
  N  N84  1  0.26990000  0.61610000  0.72830000  1
  N  N85  1  0.33250000  0.55110000  0.24730000  1
  N  N86  1  0.40260000  0.06840000  0.79570000  1
  N  N87  1  0.49890000  0.50930000  0.67730000  1
  N  N88  1  0.50110000  0.49070000  0.17730000  1
  N  N89  1  0.59740000  0.93160000  0.29570000  1
  N  N90  1  0.66750000  0.44890000  0.74730000  1
  N  N91  1  0.73010000  0.38390000  0.22830000  1
  N  N92  1  0.76990000  0.88390000  0.22830000  1
  N  N93  1  0.83250000  0.94890000  0.74730000  1
  N  N94  1  0.90260000  0.43160000  0.29570000  1
  N  N95  1  0.99890000  0.99070000  0.17730000  1
  O  O96  1  0.04560000  0.25950000  0.69840000  1
  O  O97  1  0.04610000  0.39650000  0.40700000  1
  O  O98  1  0.04920000  0.33333333  0.80500000  1
  O  O99  1  0.08540000  0.73080000  0.94940000  1
  O  O100  1  0.09180000  0.62410000  0.42900000  1
  O  O101  1  0.10980000  0.08180000  0.48640000  1
  O  O102  1  0.16650000  0.34860000  0.27360000  1
  O  O103  1  0.17340000  0.65330000  0.53470000  1
  O  O104  1  0.19950000  0.71740000  0.30650000  1
  O  O105  1  0.20470000  0.01460000  0.39190000  1
  O  O106  1  0.20500000  0.96470000  0.60430000  1
  O  O107  1  0.20750000  0.78830000  0.64580000  1
  O  O108  1  0.29250000  0.28830000  0.64580000  1
  O  O109  1  0.29500000  0.46470000  0.60430000  1
  O  O110  1  0.29530000  0.51460000  0.39190000  1
  O  O111  1  0.30050000  0.21740000  0.30650000  1
  O  O112  1  0.32660000  0.15330000  0.53470000  1
  O  O113  1  0.33350000  0.84860000  0.27360000  1
  O  O114  1  0.39020000  0.58180000  0.48640000  1
  O  O115  1  0.40820000  0.12410000  0.42900000  1
  O  O116  1  0.41460000  0.23080000  0.94940000  1
  O  O117  1  0.45080000  0.83330000  0.80500000  1
  O  O118  1  0.45390000  0.89650000  0.40700000  1
  O  O119  1  0.45440000  0.75950000  0.69840000  1
  O  O120  1  0.54560000  0.24050000  0.19840000  1
  O  O121  1  0.54610000  0.10350000  0.90700000  1
  O  O122  1  0.54920000  0.16670000  0.30500000  1
  O  O123  1  0.58540000  0.76920000  0.44940000  1
  O  O124  1  0.59180000  0.87590000  0.92900000  1
  O  O125  1  0.60980000  0.41820000  0.98640000  1
  O  O126  1  0.66650000  0.15140000  0.77360000  1
  O  O127  1  0.67340000  0.84670000  0.03470000  1
  O  O128  1  0.69950000  0.78260000  0.80650000  1
  O  O129  1  0.70470000  0.48540000  0.89190000  1
  O  O130  1  0.70500000  0.53530000  0.10430000  1
  O  O131  1  0.70750000  0.71170000  0.14580000  1
  O  O132  1  0.79250000  0.21170000  0.14580000  1
  O  O133  1  0.79500000  0.03530000  0.10430000  1
  O  O134  1  0.79530000  0.98540000  0.89190000  1
  O  O135  1  0.80050000  0.28260000  0.80650000  1
  O  O136  1  0.82660000  0.34670000  0.03470000  1
  O  O137  1  0.83350000  0.65140000  0.77360000  1
  O  O138  1  0.89020000  0.91820000  0.98640000  1
  O  O139  1  0.90820000  0.37590000  0.92900000  1
  O  O140  1  0.91460000  0.26920000  0.44940000  1
  O  O141  1  0.95080000  0.66666667  0.30500000  1
  O  O142  1  0.95390000  0.60350000  0.90700000  1
  O  O143  1  0.95440000  0.74050000  0.19840000  1
