# generated using pymatgen
data_ZnH5C6(N2O)2
_symmetry_space_group_name_H-M   'P 1'
_cell_length_a   13.39300000
_cell_length_b   13.39300000
_cell_length_c   27.33800000
_cell_angle_alpha   90.00000000
_cell_angle_beta   90.00000000
_cell_angle_gamma   90.00000000
_symmetry_Int_Tables_number   1
_chemical_formula_structural   ZnH5C6(N2O)2
_chemical_formula_sum   'Zn16 H80 C96 N64 O32'
_cell_volume   4903.68401076
_cell_formula_units_Z   16
loop_
 _symmetry_equiv_pos_site_id
 _symmetry_equiv_pos_as_xyz
  1  'x, y, z'
loop_
 _atom_site_type_symbol
 _atom_site_label
 _atom_site_symmetry_multiplicity
 _atom_site_fract_x
 _atom_site_fract_y
 _atom_site_fract_z
 _atom_site_occupancy
  Zn  Zn0  1  0.02289000  0.58883000  0.44664000  1
  Zn  Zn1  1  0.02289000  0.91117000  0.94664000  1
  Zn  Zn2  1  0.08883000  0.52289000  0.05336000  1
  Zn  Zn3  1  0.08883000  0.97711000  0.55336000  1
  Zn  Zn4  1  0.41117000  0.52289000  0.55336000  1
  Zn  Zn5  1  0.41117000  0.97711000  0.05336000  1
  Zn  Zn6  1  0.47711000  0.58883000  0.94664000  1
  Zn  Zn7  1  0.47711000  0.91117000  0.44664000  1
  Zn  Zn8  1  0.52289000  0.08883000  0.55336000  1
  Zn  Zn9  1  0.52289000  0.41117000  0.05336000  1
  Zn  Zn10  1  0.58883000  0.02289000  0.94664000  1
  Zn  Zn11  1  0.58883000  0.47711000  0.44664000  1
  Zn  Zn12  1  0.91117000  0.02289000  0.44664000  1
  Zn  Zn13  1  0.91117000  0.47711000  0.94664000  1
  Zn  Zn14  1  0.97711000  0.08883000  0.05336000  1
  Zn  Zn15  1  0.97711000  0.41117000  0.55336000  1
  H  H16  1  0.03450000  0.14170000  0.30850000  1
  H  H17  1  0.03450000  0.35830000  0.80850000  1
  H  H18  1  0.07490000  0.20280000  0.58510000  1
  H  H19  1  0.07490000  0.29720000  0.08510000  1
  H  H20  1  0.10250000  0.74840000  0.52490000  1
  H  H21  1  0.10250000  0.75160000  0.02490000  1
  H  H22  1  0.10350000  0.20240000  0.19340000  1
  H  H23  1  0.10350000  0.29760000  0.69340000  1
  H  H24  1  0.12160000  0.22180000  0.24630000  1
  H  H25  1  0.12160000  0.27820000  0.74630000  1
  H  H26  1  0.14170000  0.03450000  0.80850000  1
  H  H27  1  0.14170000  0.46550000  0.30850000  1
  H  H28  1  0.20240000  0.10350000  0.69340000  1
  H  H29  1  0.20240000  0.39650000  0.19340000  1
  H  H30  1  0.20280000  0.07490000  0.08510000  1
  H  H31  1  0.20280000  0.42510000  0.58510000  1
  H  H32  1  0.22180000  0.12160000  0.74630000  1
  H  H33  1  0.22180000  0.37840000  0.24630000  1
  H  H34  1  0.24840000  0.60250000  0.97510000  1
  H  H35  1  0.24840000  0.89750000  0.47510000  1
  H  H36  1  0.25160000  0.60250000  0.47510000  1
  H  H37  1  0.25160000  0.89750000  0.97510000  1
  H  H38  1  0.27820000  0.12160000  0.24630000  1
  H  H39  1  0.27820000  0.37840000  0.74630000  1
  H  H40  1  0.29720000  0.07490000  0.58510000  1
  H  H41  1  0.29720000  0.42510000  0.08510000  1
  H  H42  1  0.29760000  0.10350000  0.19340000  1
  H  H43  1  0.29760000  0.39650000  0.69340000  1
  H  H44  1  0.35830000  0.03450000  0.30850000  1
  H  H45  1  0.35830000  0.46550000  0.80850000  1
  H  H46  1  0.37840000  0.22180000  0.74630000  1
  H  H47  1  0.37840000  0.27820000  0.24630000  1
  H  H48  1  0.39650000  0.20240000  0.69340000  1
  H  H49  1  0.39650000  0.29760000  0.19340000  1
  H  H50  1  0.39750000  0.74840000  0.02490000  1
  H  H51  1  0.39750000  0.75160000  0.52490000  1
  H  H52  1  0.42510000  0.20280000  0.08510000  1
  H  H53  1  0.42510000  0.29720000  0.58510000  1
  H  H54  1  0.46550000  0.14170000  0.80850000  1
  H  H55  1  0.46550000  0.35830000  0.30850000  1
  H  H56  1  0.53450000  0.64170000  0.69150000  1
  H  H57  1  0.53450000  0.85830000  0.19150000  1
  H  H58  1  0.57490000  0.70280000  0.41490000  1
  H  H59  1  0.57490000  0.79720000  0.91490000  1
  H  H60  1  0.60250000  0.24840000  0.47510000  1
  H  H61  1  0.60250000  0.25160000  0.97510000  1
  H  H62  1  0.60350000  0.70240000  0.80660000  1
  H  H63  1  0.60350000  0.79760000  0.30660000  1
  H  H64  1  0.62160000  0.72180000  0.75370000  1
  H  H65  1  0.62160000  0.77820000  0.25370000  1
  H  H66  1  0.64170000  0.53450000  0.19150000  1
  H  H67  1  0.64170000  0.96550000  0.69150000  1
  H  H68  1  0.70240000  0.60350000  0.30660000  1
  H  H69  1  0.70240000  0.89650000  0.80660000  1
  H  H70  1  0.70280000  0.57490000  0.91490000  1
  H  H71  1  0.70280000  0.92510000  0.41490000  1
  H  H72  1  0.72180000  0.62160000  0.25370000  1
  H  H73  1  0.72180000  0.87840000  0.75370000  1
  H  H74  1  0.74840000  0.10250000  0.02490000  1
  H  H75  1  0.74840000  0.39750000  0.52490000  1
  H  H76  1  0.75160000  0.10250000  0.52490000  1
  H  H77  1  0.75160000  0.39750000  0.02490000  1
  H  H78  1  0.77820000  0.62160000  0.75370000  1
  H  H79  1  0.77820000  0.87840000  0.25370000  1
  H  H80  1  0.79720000  0.57490000  0.41490000  1
  H  H81  1  0.79720000  0.92510000  0.91490000  1
  H  H82  1  0.79760000  0.60350000  0.80660000  1
  H  H83  1  0.79760000  0.89650000  0.30660000  1
  H  H84  1  0.85830000  0.53450000  0.69150000  1
  H  H85  1  0.85830000  0.96550000  0.19150000  1
  H  H86  1  0.87840000  0.72180000  0.25370000  1
  H  H87  1  0.87840000  0.77820000  0.75370000  1
  H  H88  1  0.89650000  0.70240000  0.30660000  1
  H  H89  1  0.89650000  0.79760000  0.80660000  1
  H  H90  1  0.89750000  0.24840000  0.97510000  1
  H  H91  1  0.89750000  0.25160000  0.47510000  1
  H  H92  1  0.92510000  0.70280000  0.91490000  1
  H  H93  1  0.92510000  0.79720000  0.41490000  1
  H  H94  1  0.96550000  0.64170000  0.19150000  1
  H  H95  1  0.96550000  0.85830000  0.69150000  1
  C  C96  1  0.00040000  0.60560000  0.21500000  1
  C  C97  1  0.00040000  0.89440000  0.71500000  1
  C  C98  1  0.01660000  0.58750000  0.35288000  1
  C  C99  1  0.01660000  0.91250000  0.85288000  1
  C  C100  1  0.01880000  0.12340000  0.23533000  1
  C  C101  1  0.01880000  0.37660000  0.73533000  1
  C  C102  1  0.03530000  0.57030000  0.29994000  1
  C  C103  1  0.03530000  0.92970000  0.79994000  1
  C  C104  1  0.03580000  0.19360000  0.55732000  1
  C  C105  1  0.03580000  0.30640000  0.05732000  1
  C  C106  1  0.06070000  0.72000000  0.00249000  1
  C  C107  1  0.06070000  0.78000000  0.50249000  1
  C  C108  1  0.07030000  0.53530000  0.20006000  1
  C  C109  1  0.07030000  0.96470000  0.70006000  1
  C  C110  1  0.08750000  0.51660000  0.14712000  1
  C  C111  1  0.08750000  0.98340000  0.64712000  1
  C  C112  1  0.10560000  0.50040000  0.28500000  1
  C  C113  1  0.10560000  0.99960000  0.78500000  1
  C  C114  1  0.12340000  0.01880000  0.73533000  1
  C  C115  1  0.12340000  0.48120000  0.23533000  1
  C  C116  1  0.19360000  0.03580000  0.05732000  1
  C  C117  1  0.19360000  0.46420000  0.55732000  1
  C  C118  1  0.22000000  0.56070000  0.49751000  1
  C  C119  1  0.22000000  0.93930000  0.99751000  1
  C  C120  1  0.28000000  0.56070000  0.99751000  1
  C  C121  1  0.28000000  0.93930000  0.49751000  1
  C  C122  1  0.30640000  0.03580000  0.55732000  1
  C  C123  1  0.30640000  0.46420000  0.05732000  1
  C  C124  1  0.37660000  0.01880000  0.23533000  1
  C  C125  1  0.37660000  0.48120000  0.73533000  1
  C  C126  1  0.39440000  0.50040000  0.78500000  1
  C  C127  1  0.39440000  0.99960000  0.28500000  1
  C  C128  1  0.41250000  0.51660000  0.64712000  1
  C  C129  1  0.41250000  0.98340000  0.14712000  1
  C  C130  1  0.42970000  0.53530000  0.70006000  1
  C  C131  1  0.42970000  0.96470000  0.20006000  1
  C  C132  1  0.43930000  0.72000000  0.50249000  1
  C  C133  1  0.43930000  0.78000000  0.00249000  1
  C  C134  1  0.46420000  0.19360000  0.05732000  1
  C  C135  1  0.46420000  0.30640000  0.55732000  1
  C  C136  1  0.46470000  0.57030000  0.79994000  1
  C  C137  1  0.46470000  0.92970000  0.29994000  1
  C  C138  1  0.48120000  0.12340000  0.73533000  1
  C  C139  1  0.48120000  0.37660000  0.23533000  1
  C  C140  1  0.48340000  0.58750000  0.85288000  1
  C  C141  1  0.48340000  0.91250000  0.35288000  1
  C  C142  1  0.49960000  0.60560000  0.71500000  1
  C  C143  1  0.49960000  0.89440000  0.21500000  1
  C  C144  1  0.50040000  0.10560000  0.78500000  1
  C  C145  1  0.50040000  0.39440000  0.28500000  1
  C  C146  1  0.51660000  0.08750000  0.64712000  1
  C  C147  1  0.51660000  0.41250000  0.14712000  1
  C  C148  1  0.51880000  0.62340000  0.76467000  1
  C  C149  1  0.51880000  0.87660000  0.26467000  1
  C  C150  1  0.53530000  0.07030000  0.70006000  1
  C  C151  1  0.53530000  0.42970000  0.20006000  1
  C  C152  1  0.53580000  0.69360000  0.44268000  1
  C  C153  1  0.53580000  0.80640000  0.94268000  1
  C  C154  1  0.56070000  0.22000000  0.99751000  1
  C  C155  1  0.56070000  0.28000000  0.49751000  1
  C  C156  1  0.57030000  0.03530000  0.79994000  1
  C  C157  1  0.57030000  0.46470000  0.29994000  1
  C  C158  1  0.58750000  0.01660000  0.85288000  1
  C  C159  1  0.58750000  0.48340000  0.35288000  1
  C  C160  1  0.60560000  0.00040000  0.71500000  1
  C  C161  1  0.60560000  0.49960000  0.21500000  1
  C  C162  1  0.62340000  0.51880000  0.26467000  1
  C  C163  1  0.62340000  0.98120000  0.76467000  1
  C  C164  1  0.69360000  0.53580000  0.94268000  1
  C  C165  1  0.69360000  0.96420000  0.44268000  1
  C  C166  1  0.72000000  0.06070000  0.50249000  1
  C  C167  1  0.72000000  0.43930000  0.00249000  1
  C  C168  1  0.78000000  0.06070000  0.00249000  1
  C  C169  1  0.78000000  0.43930000  0.50249000  1
  C  C170  1  0.80640000  0.53580000  0.44268000  1
  C  C171  1  0.80640000  0.96420000  0.94268000  1
  C  C172  1  0.87660000  0.51880000  0.76467000  1
  C  C173  1  0.87660000  0.98120000  0.26467000  1
  C  C174  1  0.89440000  0.00040000  0.21500000  1
  C  C175  1  0.89440000  0.49960000  0.71500000  1
  C  C176  1  0.91250000  0.01660000  0.35288000  1
  C  C177  1  0.91250000  0.48340000  0.85288000  1
  C  C178  1  0.92970000  0.03530000  0.29994000  1
  C  C179  1  0.92970000  0.46470000  0.79994000  1
  C  C180  1  0.93930000  0.22000000  0.49751000  1
  C  C181  1  0.93930000  0.28000000  0.99751000  1
  C  C182  1  0.96420000  0.69360000  0.94268000  1
  C  C183  1  0.96420000  0.80640000  0.44268000  1
  C  C184  1  0.96470000  0.07030000  0.20006000  1
  C  C185  1  0.96470000  0.42970000  0.70006000  1
  C  C186  1  0.98120000  0.62340000  0.26467000  1
  C  C187  1  0.98120000  0.87660000  0.76467000  1
  C  C188  1  0.98340000  0.08750000  0.14712000  1
  C  C189  1  0.98340000  0.41250000  0.64712000  1
  C  C190  1  0.99960000  0.10560000  0.28500000  1
  C  C191  1  0.99960000  0.39440000  0.78500000  1
  N  N192  1  0.01610000  0.73280000  0.46469000  1
  N  N193  1  0.01610000  0.76720000  0.96469000  1
  N  N194  1  0.02470000  0.10730000  0.53492000  1
  N  N195  1  0.02470000  0.39270000  0.03492000  1
  N  N196  1  0.03830000  0.62400000  0.00405000  1
  N  N197  1  0.03830000  0.87600000  0.50405000  1
  N  N198  1  0.08990000  0.19070000  0.22360000  1
  N  N199  1  0.08990000  0.30930000  0.72360000  1
  N  N200  1  0.10730000  0.02470000  0.03492000  1
  N  N201  1  0.10730000  0.47530000  0.53492000  1
  N  N202  1  0.12400000  0.53830000  0.49595000  1
  N  N203  1  0.12400000  0.96170000  0.99595000  1
  N  N204  1  0.19070000  0.08990000  0.72360000  1
  N  N205  1  0.19070000  0.41010000  0.22360000  1
  N  N206  1  0.23280000  0.51610000  0.03531000  1
  N  N207  1  0.23280000  0.98390000  0.53531000  1
  N  N208  1  0.26720000  0.51610000  0.53531000  1
  N  N209  1  0.26720000  0.98390000  0.03531000  1
  N  N210  1  0.30930000  0.08990000  0.22360000  1
  N  N211  1  0.30930000  0.41010000  0.72360000  1
  N  N212  1  0.37600000  0.53830000  0.99595000  1
  N  N213  1  0.37600000  0.96170000  0.49595000  1
  N  N214  1  0.39270000  0.02470000  0.53492000  1
  N  N215  1  0.39270000  0.47530000  0.03492000  1
  N  N216  1  0.41010000  0.19070000  0.72360000  1
  N  N217  1  0.41010000  0.30930000  0.22360000  1
  N  N218  1  0.46170000  0.62400000  0.50405000  1
  N  N219  1  0.46170000  0.87600000  0.00405000  1
  N  N220  1  0.47530000  0.10730000  0.03492000  1
  N  N221  1  0.47530000  0.39270000  0.53492000  1
  N  N222  1  0.48390000  0.73280000  0.96469000  1
  N  N223  1  0.48390000  0.76720000  0.46469000  1
  N  N224  1  0.51610000  0.23280000  0.53531000  1
  N  N225  1  0.51610000  0.26720000  0.03531000  1
  N  N226  1  0.52470000  0.60730000  0.46508000  1
  N  N227  1  0.52470000  0.89270000  0.96508000  1
  N  N228  1  0.53830000  0.12400000  0.99595000  1
  N  N229  1  0.53830000  0.37600000  0.49595000  1
  N  N230  1  0.58990000  0.69070000  0.77640000  1
  N  N231  1  0.58990000  0.80930000  0.27640000  1
  N  N232  1  0.60730000  0.52470000  0.96508000  1
  N  N233  1  0.60730000  0.97530000  0.46508000  1
  N  N234  1  0.62400000  0.03830000  0.50405000  1
  N  N235  1  0.62400000  0.46170000  0.00405000  1
  N  N236  1  0.69070000  0.58990000  0.27640000  1
  N  N237  1  0.69070000  0.91010000  0.77640000  1
  N  N238  1  0.73280000  0.01610000  0.96469000  1
  N  N239  1  0.73280000  0.48390000  0.46469000  1
  N  N240  1  0.76720000  0.01610000  0.46469000  1
  N  N241  1  0.76720000  0.48390000  0.96469000  1
  N  N242  1  0.80930000  0.58990000  0.77640000  1
  N  N243  1  0.80930000  0.91010000  0.27640000  1
  N  N244  1  0.87600000  0.03830000  0.00405000  1
  N  N245  1  0.87600000  0.46170000  0.50405000  1
  N  N246  1  0.89270000  0.52470000  0.46508000  1
  N  N247  1  0.89270000  0.97530000  0.96508000  1
  N  N248  1  0.91010000  0.69070000  0.27640000  1
  N  N249  1  0.91010000  0.80930000  0.77640000  1
  N  N250  1  0.96170000  0.12400000  0.49595000  1
  N  N251  1  0.96170000  0.37600000  0.99595000  1
  N  N252  1  0.97530000  0.60730000  0.96508000  1
  N  N253  1  0.97530000  0.89270000  0.46508000  1
  N  N254  1  0.98390000  0.23280000  0.03531000  1
  N  N255  1  0.98390000  0.26720000  0.53531000  1
  O  O256  1  0.04670000  0.57670000  0.11668000  1
  O  O257  1  0.04670000  0.92330000  0.61668000  1
  O  O258  1  0.05440000  0.13940000  0.13281000  1
  O  O259  1  0.05440000  0.36060000  0.63281000  1
  O  O260  1  0.07670000  0.54670000  0.38332000  1
  O  O261  1  0.07670000  0.95330000  0.88332000  1
  O  O262  1  0.13940000  0.05440000  0.63281000  1
  O  O263  1  0.13940000  0.44560000  0.13281000  1
  O  O264  1  0.36060000  0.05440000  0.13281000  1
  O  O265  1  0.36060000  0.44560000  0.63281000  1
  O  O266  1  0.42330000  0.54670000  0.88332000  1
  O  O267  1  0.42330000  0.95330000  0.38332000  1
  O  O268  1  0.44560000  0.13940000  0.63281000  1
  O  O269  1  0.44560000  0.36060000  0.13281000  1
  O  O270  1  0.45330000  0.57670000  0.61668000  1
  O  O271  1  0.45330000  0.92330000  0.11668000  1
  O  O272  1  0.54670000  0.07670000  0.88332000  1
  O  O273  1  0.54670000  0.42330000  0.38332000  1
  O  O274  1  0.55440000  0.63940000  0.86719000  1
  O  O275  1  0.55440000  0.86060000  0.36719000  1
  O  O276  1  0.57670000  0.04670000  0.61668000  1
  O  O277  1  0.57670000  0.45330000  0.11668000  1
  O  O278  1  0.63940000  0.55440000  0.36719000  1
  O  O279  1  0.63940000  0.94560000  0.86719000  1
  O  O280  1  0.86060000  0.55440000  0.86719000  1
  O  O281  1  0.86060000  0.94560000  0.36719000  1
  O  O282  1  0.92330000  0.04670000  0.11668000  1
  O  O283  1  0.92330000  0.45330000  0.61668000  1
  O  O284  1  0.94560000  0.63940000  0.36719000  1
  O  O285  1  0.94560000  0.86060000  0.86719000  1
  O  O286  1  0.95330000  0.07670000  0.38332000  1
  O  O287  1  0.95330000  0.42330000  0.88332000  1
