# generated using pymatgen
data_EuH4C7N2O7
_symmetry_space_group_name_H-M   'P 1'
_cell_length_a   6.09150000
_cell_length_b   9.96100000
_cell_length_c   13.36100000
_cell_angle_alpha   68.87000000
_cell_angle_beta   81.01000000
_cell_angle_gamma   76.72000000
_symmetry_Int_Tables_number   1
_chemical_formula_structural   EuH4C7N2O7
_chemical_formula_sum   'Eu2 H8 C14 N4 O14'
_cell_volume   733.56820584
_cell_formula_units_Z   2
loop_
 _symmetry_equiv_pos_site_id
 _symmetry_equiv_pos_as_xyz
  1  'x, y, z'
loop_
 _atom_site_type_symbol
 _atom_site_label
 _atom_site_symmetry_multiplicity
 _atom_site_fract_x
 _atom_site_fract_y
 _atom_site_fract_z
 _atom_site_occupancy
  Eu  Eu0  1  0.33172000  0.61438000  0.19609000  1
  Eu  Eu1  1  0.66828000  0.38562000  0.80391000  1
  H  H2  1  0.01020000  0.49890000  0.76880000  1
  H  H3  1  0.08200000  0.42090000  0.16320000  1
  H  H4  1  0.17230000  0.95480000  0.97320000  1
  H  H5  1  0.20190000  0.32650000  0.63080000  1
  H  H6  1  0.79810000  0.67350000  0.36920000  1
  H  H7  1  0.82770000  0.04520000  0.02680000  1
  H  H8  1  0.91800000  0.57910000  0.83680000  1
  H  H9  1  0.98980000  0.50110000  0.23120000  1
  C  C10  1  0.11500000  0.39860000  0.57830000  1
  C  C11  1  0.21070000  0.23280000  0.85820000  1
  C  C12  1  0.21140000  0.44480000  0.47260000  1
  C  C13  1  0.30880000  0.97110000  0.98510000  1
  C  C14  1  0.36690000  0.10450000  0.93140000  1
  C  C15  1  0.40890000  0.56050000  0.96650000  1
  C  C16  1  0.44980000  0.38270000  0.43960000  1
  C  C17  1  0.55020000  0.61730000  0.56040000  1
  C  C18  1  0.59110000  0.43950000  0.03350000  1
  C  C19  1  0.63310000  0.89550000  0.06860000  1
  C  C20  1  0.69120000  0.02890000  0.01490000  1
  C  C21  1  0.78860000  0.55520000  0.52740000  1
  C  C22  1  0.78930000  0.76720000  0.14180000  1
  C  C23  1  0.88500000  0.60140000  0.42170000  1
  N  N24  1  0.09380000  0.54670000  0.39350000  1
  N  N25  1  0.43910000  0.86480000  0.05320000  1
  N  N26  1  0.56090000  0.13520000  0.94680000  1
  N  N27  1  0.90620000  0.45330000  0.60650000  1
  O  O28  1  0.02050000  0.21560000  0.84770000  1
  O  O29  1  0.09290000  0.43410000  0.22090000  1
  O  O30  1  0.27550000  0.63730000  0.01350000  1
  O  O31  1  0.28520000  0.35160000  0.81510000  1
  O  O32  1  0.41510000  0.56930000  0.87070000  1
  O  O33  1  0.43210000  0.70990000  0.48980000  1
  O  O34  1  0.48640000  0.56900000  0.65730000  1
  O  O35  1  0.51360000  0.43100000  0.34270000  1
  O  O36  1  0.56790000  0.29010000  0.51020000  1
  O  O37  1  0.58490000  0.43070000  0.12930000  1
  O  O38  1  0.71480000  0.64840000  0.18490000  1
  O  O39  1  0.72450000  0.36270000  0.98650000  1
  O  O40  1  0.90710000  0.56590000  0.77910000  1
  O  O41  1  0.97950000  0.78440000  0.15230000  1
