# generated using pymatgen
data_Co2H18C24N4O9
_symmetry_space_group_name_H-M   'P 1'
_cell_length_a   11.37490000
_cell_length_b   13.35960000
_cell_length_c   25.96910000
_cell_angle_alpha   90.00000000
_cell_angle_beta   90.00000000
_cell_angle_gamma   90.00000000
_symmetry_Int_Tables_number   1
_chemical_formula_structural   Co2H18C24N4O9
_chemical_formula_sum   'Co8 H72 C96 N16 O36'
_cell_volume   3946.37127392
_cell_formula_units_Z   4
loop_
 _symmetry_equiv_pos_site_id
 _symmetry_equiv_pos_as_xyz
  1  'x, y, z'
loop_
 _atom_site_type_symbol
 _atom_site_label
 _atom_site_symmetry_multiplicity
 _atom_site_fract_x
 _atom_site_fract_y
 _atom_site_fract_z
 _atom_site_occupancy
  Co  Co0  1  0.09411000  0.94370000  0.13838000  1
  Co  Co1  1  0.16192000  0.55890000  0.42105000  1
  Co  Co2  1  0.33808000  0.44110000  0.92105000  1
  Co  Co3  1  0.40589000  0.05630000  0.63838000  1
  Co  Co4  1  0.59411000  0.55630000  0.86162000  1
  Co  Co5  1  0.66192000  0.94110000  0.57895000  1
  Co  Co6  1  0.83808000  0.05890000  0.07895000  1
  Co  Co7  1  0.90589000  0.44370000  0.36162000  1
  H  H8  1  0.00870000  0.12610000  0.49600000  1
  H  H9  1  0.01090000  0.68200000  0.83380000  1
  H  H10  1  0.01090000  0.88390000  0.65480000  1
  H  H11  1  0.04110000  0.25240000  0.33430000  1
  H  H12  1  0.04790000  0.15560000  0.94740000  1
  H  H13  1  0.07350000  0.14060000  0.26670000  1
  H  H14  1  0.08570000  0.50520000  0.95470000  1
  H  H15  1  0.09270000  0.37120000  0.41060000  1
  H  H16  1  0.10780000  0.41050000  0.51040000  1
  H  H17  1  0.13530000  0.68820000  0.51710000  1
  H  H18  1  0.13570000  0.40930000  0.35540000  1
  H  H19  1  0.14030000  0.80930000  0.32090000  1
  H  H20  1  0.14760000  0.28050000  0.90400000  1
  H  H21  1  0.15630000  0.92010000  0.25360000  1
  H  H22  1  0.19140000  0.18940000  0.66490000  1
  H  H23  1  0.19380000  0.28790000  0.55910000  1
  H  H24  1  0.21320000  0.89760000  0.65570000  1
  H  H25  1  0.22660000  0.81390000  0.56250000  1
  H  H26  1  0.27340000  0.18610000  0.06250000  1
  H  H27  1  0.28680000  0.10240000  0.15570000  1
  H  H28  1  0.30620000  0.71210000  0.05910000  1
  H  H29  1  0.30860000  0.81060000  0.16490000  1
  H  H30  1  0.34370000  0.07990000  0.75360000  1
  H  H31  1  0.35240000  0.71950000  0.40400000  1
  H  H32  1  0.35970000  0.19070000  0.82090000  1
  H  H33  1  0.36430000  0.59070000  0.85540000  1
  H  H34  1  0.36470000  0.31180000  0.01710000  1
  H  H35  1  0.39220000  0.58950000  0.01040000  1
  H  H36  1  0.40730000  0.62880000  0.91060000  1
  H  H37  1  0.41430000  0.49480000  0.45470000  1
  H  H38  1  0.42650000  0.85940000  0.76670000  1
  H  H39  1  0.45210000  0.84440000  0.44740000  1
  H  H40  1  0.45890000  0.74760000  0.83430000  1
  H  H41  1  0.48910000  0.11610000  0.15480000  1
  H  H42  1  0.48910000  0.31800000  0.33380000  1
  H  H43  1  0.49130000  0.87390000  0.99600000  1
  H  H44  1  0.50870000  0.37390000  0.50400000  1
  H  H45  1  0.51090000  0.61610000  0.34520000  1
  H  H46  1  0.51090000  0.81800000  0.16620000  1
  H  H47  1  0.54110000  0.24760000  0.66570000  1
  H  H48  1  0.54790000  0.34440000  0.05260000  1
  H  H49  1  0.57350000  0.35940000  0.73330000  1
  H  H50  1  0.58570000  0.99480000  0.04530000  1
  H  H51  1  0.59270000  0.12880000  0.58940000  1
  H  H52  1  0.60780000  0.08950000  0.48960000  1
  H  H53  1  0.63530000  0.81180000  0.48290000  1
  H  H54  1  0.63570000  0.09070000  0.64460000  1
  H  H55  1  0.64030000  0.69070000  0.67910000  1
  H  H56  1  0.64760000  0.21950000  0.09600000  1
  H  H57  1  0.65630000  0.57990000  0.74640000  1
  H  H58  1  0.69140000  0.31060000  0.33510000  1
  H  H59  1  0.69380000  0.21210000  0.44090000  1
  H  H60  1  0.71320000  0.60240000  0.34430000  1
  H  H61  1  0.72660000  0.68610000  0.43750000  1
  H  H62  1  0.77340000  0.31390000  0.93750000  1
  H  H63  1  0.78680000  0.39760000  0.84430000  1
  H  H64  1  0.80620000  0.78790000  0.94090000  1
  H  H65  1  0.80860000  0.68940000  0.83510000  1
  H  H66  1  0.84370000  0.42010000  0.24640000  1
  H  H67  1  0.85240000  0.78050000  0.59600000  1
  H  H68  1  0.85970000  0.30930000  0.17910000  1
  H  H69  1  0.86430000  0.90930000  0.14460000  1
  H  H70  1  0.86470000  0.18820000  0.98290000  1
  H  H71  1  0.89220000  0.91050000  0.98960000  1
  H  H72  1  0.90730000  0.87120000  0.08940000  1
  H  H73  1  0.91430000  0.00520000  0.54530000  1
  H  H74  1  0.92650000  0.64060000  0.23330000  1
  H  H75  1  0.95210000  0.65560000  0.55260000  1
  H  H76  1  0.95890000  0.75240000  0.16570000  1
  H  H77  1  0.98910000  0.18200000  0.66620000  1
  H  H78  1  0.98910000  0.38390000  0.84520000  1
  H  H79  1  0.99130000  0.62610000  0.00400000  1
  C  C80  1  0.00490000  0.26470000  0.30190000  1
  C  C81  1  0.01950000  0.63530000  0.32708000  1
  C  C82  1  0.02300000  0.53260000  0.84190000  1
  C  C83  1  0.02310000  0.19660000  0.26200000  1
  C  C84  1  0.03270000  0.71170000  0.28400000  1
  C  C85  1  0.03330000  0.12210000  0.66280000  1
  C  C86  1  0.04630000  0.94820000  0.65640000  1
  C  C87  1  0.07450000  0.62070000  0.00520000  1
  C  C88  1  0.07790000  0.76680000  0.06620000  1
  C  C89  1  0.08470000  0.08090000  0.04190000  1
  C  C90  1  0.10080000  0.79610000  0.28940000  1
  C  C91  1  0.11090000  0.86110000  0.24880000  1
  C  C92  1  0.11340000  0.18750000  0.96310000  1
  C  C93  1  0.13100000  0.54830000  0.97600000  1
  C  C94  1  0.13880000  0.68500000  0.03600000  1
  C  C95  1  0.14960000  0.15910000  0.01080000  1
  C  C96  1  0.15430000  0.12580000  0.66250000  1
  C  C97  1  0.15570000  0.52810000  0.84980000  1
  C  C98  1  0.16710000  0.95680000  0.65690000  1
  C  C99  1  0.17270000  0.26320000  0.93770000  1
  C  C100  1  0.19060000  0.40210000  0.50840000  1
  C  C101  1  0.20270000  0.71920000  0.50240000  1
  C  C102  1  0.24120000  0.32900000  0.53770000  1
  C  C103  1  0.24330000  0.20530000  0.02980000  1
  C  C104  1  0.25670000  0.79470000  0.52980000  1
  C  C105  1  0.25880000  0.67100000  0.03770000  1
  C  C106  1  0.29730000  0.28080000  0.00240000  1
  C  C107  1  0.30940000  0.59790000  0.00840000  1
  C  C108  1  0.32730000  0.73680000  0.43770000  1
  C  C109  1  0.33290000  0.04320000  0.15690000  1
  C  C110  1  0.34430000  0.47190000  0.34980000  1
  C  C111  1  0.34570000  0.87420000  0.16250000  1
  C  C112  1  0.35040000  0.84090000  0.51080000  1
  C  C113  1  0.36120000  0.31500000  0.53600000  1
  C  C114  1  0.36900000  0.45170000  0.47600000  1
  C  C115  1  0.38660000  0.81250000  0.46310000  1
  C  C116  1  0.38910000  0.13890000  0.74880000  1
  C  C117  1  0.39920000  0.20390000  0.78940000  1
  C  C118  1  0.41530000  0.91910000  0.54190000  1
  C  C119  1  0.42210000  0.23320000  0.56620000  1
  C  C120  1  0.42550000  0.37930000  0.50520000  1
  C  C121  1  0.45370000  0.05180000  0.15640000  1
  C  C122  1  0.46670000  0.87790000  0.16280000  1
  C  C123  1  0.46730000  0.28830000  0.78400000  1
  C  C124  1  0.47690000  0.80340000  0.76200000  1
  C  C125  1  0.47700000  0.46740000  0.34190000  1
  C  C126  1  0.48050000  0.36470000  0.82708000  1
  C  C127  1  0.49510000  0.73530000  0.80190000  1
  C  C128  1  0.50490000  0.23530000  0.69810000  1
  C  C129  1  0.51950000  0.86470000  0.67292000  1
  C  C130  1  0.52300000  0.96740000  0.15810000  1
  C  C131  1  0.52310000  0.30340000  0.73800000  1
  C  C132  1  0.53270000  0.78830000  0.71600000  1
  C  C133  1  0.53330000  0.37790000  0.33720000  1
  C  C134  1  0.54630000  0.55180000  0.34360000  1
  C  C135  1  0.57450000  0.87930000  0.99480000  1
  C  C136  1  0.57790000  0.73320000  0.93380000  1
  C  C137  1  0.58470000  0.41910000  0.95810000  1
  C  C138  1  0.60080000  0.70390000  0.71060000  1
  C  C139  1  0.61090000  0.63890000  0.75120000  1
  C  C140  1  0.61340000  0.31250000  0.03690000  1
  C  C141  1  0.63100000  0.95170000  0.02400000  1
  C  C142  1  0.63880000  0.81500000  0.96400000  1
  C  C143  1  0.64960000  0.34090000  0.98920000  1
  C  C144  1  0.65430000  0.37420000  0.33750000  1
  C  C145  1  0.65570000  0.97190000  0.15020000  1
  C  C146  1  0.66710000  0.54320000  0.34310000  1
  C  C147  1  0.67270000  0.23680000  0.06230000  1
  C  C148  1  0.69060000  0.09790000  0.49160000  1
  C  C149  1  0.70270000  0.78080000  0.49760000  1
  C  C150  1  0.74120000  0.17100000  0.46230000  1
  C  C151  1  0.74330000  0.29470000  0.97020000  1
  C  C152  1  0.75670000  0.70530000  0.47020000  1
  C  C153  1  0.75880000  0.82900000  0.96230000  1
  C  C154  1  0.79730000  0.21920000  0.99760000  1
  C  C155  1  0.80940000  0.90210000  0.99160000  1
  C  C156  1  0.82730000  0.76320000  0.56230000  1
  C  C157  1  0.83290000  0.45680000  0.84310000  1
  C  C158  1  0.84430000  0.02810000  0.65020000  1
  C  C159  1  0.84570000  0.62580000  0.83750000  1
  C  C160  1  0.85040000  0.65910000  0.48920000  1
  C  C161  1  0.86120000  0.18500000  0.46400000  1
  C  C162  1  0.86900000  0.04830000  0.52400000  1
  C  C163  1  0.88660000  0.68750000  0.53690000  1
  C  C164  1  0.88910000  0.36110000  0.25120000  1
  C  C165  1  0.89920000  0.29610000  0.21060000  1
  C  C166  1  0.91530000  0.58090000  0.45810000  1
  C  C167  1  0.92210000  0.26680000  0.43380000  1
  C  C168  1  0.92550000  0.12070000  0.49480000  1
  C  C169  1  0.95370000  0.44820000  0.84360000  1
  C  C170  1  0.96670000  0.62210000  0.83720000  1
  C  C171  1  0.96730000  0.21170000  0.21600000  1
  C  C172  1  0.97690000  0.69660000  0.23800000  1
  C  C173  1  0.97700000  0.03260000  0.65810000  1
  C  C174  1  0.98050000  0.13530000  0.17292000  1
  C  C175  1  0.99510000  0.76470000  0.19810000  1
  N  N176  1  0.06160000  0.84700000  0.20354000  1
  N  N177  1  0.22160000  0.04500000  0.65900000  1
  N  N178  1  0.23900000  0.68780000  0.45732000  1
  N  N179  1  0.24910000  0.53760000  0.97729000  1
  N  N180  1  0.25090000  0.46240000  0.47729000  1
  N  N181  1  0.26100000  0.31220000  0.95732000  1
  N  N182  1  0.27840000  0.95500000  0.15900000  1
  N  N183  1  0.43840000  0.15300000  0.70354000  1
  N  N184  1  0.56160000  0.65300000  0.79646000  1
  N  N185  1  0.72160000  0.45500000  0.34100000  1
  N  N186  1  0.73900000  0.81220000  0.54268000  1
  N  N187  1  0.74910000  0.96240000  0.02271000  1
  N  N188  1  0.75090000  0.03760000  0.52271000  1
  N  N189  1  0.76100000  0.18780000  0.04268000  1
  N  N190  1  0.77840000  0.54500000  0.84100000  1
  N  N191  1  0.93840000  0.34700000  0.29646000  1
  O  O192  1  0.02160000  0.56630000  0.47104000  1
  O  O193  1  0.03000000  0.27550000  0.44008000  1
  O  O194  1  0.05010000  0.06490000  0.18225000  1
  O  O195  1  0.07970000  0.64970000  0.36648000  1
  O  O196  1  0.08760000  0.42730000  0.38584000  1
  O  O197  1  0.13850000  0.04040000  0.07763000  1
  O  O198  1  0.14080000  0.82020000  0.09486000  1
  O  O199  1  0.19330000  0.45100000  0.87258000  1
  O  O200  1  0.21510000  0.60100000  0.83558000  1
  O  O201  1  0.28490000  0.39900000  0.33558000  1
  O  O202  1  0.30670000  0.54900000  0.37258000  1
  O  O203  1  0.35920000  0.17980000  0.59486000  1
  O  O204  1  0.36150000  0.95960000  0.57763000  1
  O  O205  1  0.41240000  0.57270000  0.88584000  1
  O  O206  1  0.42030000  0.35030000  0.86648000  1
  O  O207  1  0.44990000  0.93510000  0.68225000  1
  O  O208  1  0.47000000  0.72450000  0.94008000  1
  O  O209  1  0.47840000  0.43370000  0.97104000  1
  O  O210  1  0.52160000  0.93370000  0.52896000  1
  O  O211  1  0.53000000  0.22450000  0.55992000  1
  O  O212  1  0.55010000  0.43510000  0.81775000  1
  O  O213  1  0.57970000  0.85030000  0.63352000  1
  O  O214  1  0.58760000  0.07270000  0.61416000  1
  O  O215  1  0.63850000  0.45960000  0.92237000  1
  O  O216  1  0.64080000  0.67980000  0.90514000  1
  O  O217  1  0.69330000  0.04900000  0.12742000  1
  O  O218  1  0.71510000  0.89900000  0.16442000  1
  O  O219  1  0.78490000  0.10100000  0.66442000  1
  O  O220  1  0.80670000  0.95100000  0.62742000  1
  O  O221  1  0.85920000  0.32020000  0.40514000  1
  O  O222  1  0.86150000  0.54040000  0.42237000  1
  O  O223  1  0.91240000  0.92730000  0.11416000  1
  O  O224  1  0.92030000  0.14970000  0.13352000  1
  O  O225  1  0.94990000  0.56490000  0.31775000  1
  O  O226  1  0.97000000  0.77550000  0.05992000  1
  O  O227  1  0.97840000  0.06630000  0.02896000  1
