# generated using pymatgen
data_LaH15(C2O)6
_symmetry_space_group_name_H-M   'P 1'
_cell_length_a   10.58260000
_cell_length_b   12.00750000
_cell_length_c   18.14700000
_cell_angle_alpha   90.00000000
_cell_angle_beta   90.00000000
_cell_angle_gamma   110.07400000
_symmetry_Int_Tables_number   1
_chemical_formula_structural   LaH15(C2O)6
_chemical_formula_sum   'La4 H60 C48 O24'
_cell_volume   2165.86342304
_cell_formula_units_Z   4
loop_
 _symmetry_equiv_pos_site_id
 _symmetry_equiv_pos_as_xyz
  1  'x, y, z'
loop_
 _atom_site_type_symbol
 _atom_site_label
 _atom_site_symmetry_multiplicity
 _atom_site_fract_x
 _atom_site_fract_y
 _atom_site_fract_z
 _atom_site_occupancy
  La  La0  1  0.03527000  0.14498000  0.56857000  1
  La  La1  1  0.46473000  0.35502000  0.06857000  1
  La  La2  1  0.53527000  0.64498000  0.93143000  1
  La  La3  1  0.96473000  0.85502000  0.43143000  1
  H  H4  1  0.00600000  0.35320000  0.32280000  1
  H  H5  1  0.01900000  0.27510000  0.25590000  1
  H  H6  1  0.02250000  0.69460000  0.03420000  1
  H  H7  1  0.03100000  0.65100000  0.95340000  1
  H  H8  1  0.07510000  0.58990000  0.78860000  1
  H  H9  1  0.12020000  0.56200000  0.08080000  1
  H  H10  1  0.13010000  0.65860000  0.23570000  1
  H  H11  1  0.13400000  0.48700000  0.93500000  1
  H  H12  1  0.14160000  0.58210000  0.30380000  1
  H  H13  1  0.16000000  0.93510000  0.75720000  1
  H  H14  1  0.16700000  0.77000000  0.84400000  1
  H  H15  1  0.18570000  0.62420000  0.72700000  1
  H  H16  1  0.18900000  0.79300000  0.64000000  1
  H  H17  1  0.21520000  0.63880000  0.01950000  1
  H  H18  1  0.22870000  0.52230000  0.19610000  1
  H  H19  1  0.27130000  0.97770000  0.69610000  1
  H  H20  1  0.28480000  0.86120000  0.51950000  1
  H  H21  1  0.31100000  0.70700000  0.14000000  1
  H  H22  1  0.31430000  0.87580000  0.22700000  1
  H  H23  1  0.33300000  0.73000000  0.34400000  1
  H  H24  1  0.34000000  0.56490000  0.25720000  1
  H  H25  1  0.35840000  0.91790000  0.80380000  1
  H  H26  1  0.36600000  0.01300000  0.43500000  1
  H  H27  1  0.36990000  0.84140000  0.73570000  1
  H  H28  1  0.37980000  0.93800000  0.58080000  1
  H  H29  1  0.42490000  0.91010000  0.28860000  1
  H  H30  1  0.46900000  0.84900000  0.45340000  1
  H  H31  1  0.47750000  0.80540000  0.53420000  1
  H  H32  1  0.48100000  0.22490000  0.75590000  1
  H  H33  1  0.49400000  0.14680000  0.82280000  1
  H  H34  1  0.50600000  0.85320000  0.17720000  1
  H  H35  1  0.51900000  0.77510000  0.24410000  1
  H  H36  1  0.52250000  0.19460000  0.46580000  1
  H  H37  1  0.53100000  0.15100000  0.54660000  1
  H  H38  1  0.57510000  0.08990000  0.71140000  1
  H  H39  1  0.62020000  0.06200000  0.41920000  1
  H  H40  1  0.63010000  0.15860000  0.26430000  1
  H  H41  1  0.63400000  0.98700000  0.56500000  1
  H  H42  1  0.64160000  0.08210000  0.19620000  1
  H  H43  1  0.66000000  0.43510000  0.74280000  1
  H  H44  1  0.66700000  0.27000000  0.65600000  1
  H  H45  1  0.68570000  0.12420000  0.77300000  1
  H  H46  1  0.68900000  0.29300000  0.86000000  1
  H  H47  1  0.71520000  0.13880000  0.48050000  1
  H  H48  1  0.72870000  0.02230000  0.30390000  1
  H  H49  1  0.77130000  0.47770000  0.80390000  1
  H  H50  1  0.78480000  0.36120000  0.98050000  1
  H  H51  1  0.81100000  0.20700000  0.36000000  1
  H  H52  1  0.81430000  0.37580000  0.27300000  1
  H  H53  1  0.83300000  0.23000000  0.15600000  1
  H  H54  1  0.84000000  0.06490000  0.24280000  1
  H  H55  1  0.85840000  0.41790000  0.69620000  1
  H  H56  1  0.86600000  0.51300000  0.06500000  1
  H  H57  1  0.86990000  0.34140000  0.76430000  1
  H  H58  1  0.87980000  0.43800000  0.91920000  1
  H  H59  1  0.92490000  0.41010000  0.21140000  1
  H  H60  1  0.96900000  0.34900000  0.04660000  1
  H  H61  1  0.97750000  0.30540000  0.96580000  1
  H  H62  1  0.98100000  0.72490000  0.74410000  1
  H  H63  1  0.99400000  0.64680000  0.67720000  1
  C  C64  1  0.01720000  0.62600000  0.00450000  1
  C  C65  1  0.04430000  0.86460000  0.61940000  1
  C  C66  1  0.04470000  0.70620000  0.71240000  1
  C  C67  1  0.12010000  0.46670000  0.98700000  1
  C  C68  1  0.12760000  0.81680000  0.67130000  1
  C  C69  1  0.12810000  0.57850000  0.02830000  1
  C  C70  1  0.13250000  0.65510000  0.75920000  1
  C  C71  1  0.18110000  0.79700000  0.35570000  1
  C  C72  1  0.19300000  0.64100000  0.26850000  1
  C  C73  1  0.21620000  0.90930000  0.72390000  1
  C  C74  1  0.22490000  0.74690000  0.80930000  1
  C  C75  1  0.23330000  0.42440000  0.01180000  1
  C  C76  1  0.26670000  0.07560000  0.51180000  1
  C  C77  1  0.27510000  0.75310000  0.30930000  1
  C  C78  1  0.28380000  0.59070000  0.22390000  1
  C  C79  1  0.30700000  0.85900000  0.76850000  1
  C  C80  1  0.31890000  0.70300000  0.85570000  1
  C  C81  1  0.36750000  0.84490000  0.25920000  1
  C  C82  1  0.37190000  0.92150000  0.52830000  1
  C  C83  1  0.37240000  0.68320000  0.17130000  1
  C  C84  1  0.37990000  0.03330000  0.48700000  1
  C  C85  1  0.45530000  0.79380000  0.21240000  1
  C  C86  1  0.45570000  0.63540000  0.11940000  1
  C  C87  1  0.48280000  0.87400000  0.50450000  1
  C  C88  1  0.51720000  0.12600000  0.49550000  1
  C  C89  1  0.54430000  0.36460000  0.88060000  1
  C  C90  1  0.54470000  0.20620000  0.78760000  1
  C  C91  1  0.62010000  0.96670000  0.51300000  1
  C  C92  1  0.62760000  0.31680000  0.82870000  1
  C  C93  1  0.62810000  0.07850000  0.47170000  1
  C  C94  1  0.63250000  0.15510000  0.74080000  1
  C  C95  1  0.68110000  0.29700000  0.14430000  1
  C  C96  1  0.69300000  0.14100000  0.23150000  1
  C  C97  1  0.71620000  0.40930000  0.77610000  1
  C  C98  1  0.72490000  0.24690000  0.69070000  1
  C  C99  1  0.73330000  0.92440000  0.48820000  1
  C  C100  1  0.76670000  0.57560000  0.98820000  1
  C  C101  1  0.77510000  0.25310000  0.19070000  1
  C  C102  1  0.78380000  0.09070000  0.27610000  1
  C  C103  1  0.80700000  0.35900000  0.73150000  1
  C  C104  1  0.81890000  0.20300000  0.64430000  1
  C  C105  1  0.86750000  0.34490000  0.24080000  1
  C  C106  1  0.87190000  0.42150000  0.97170000  1
  C  C107  1  0.87240000  0.18320000  0.32870000  1
  C  C108  1  0.87990000  0.53330000  0.01300000  1
  C  C109  1  0.95530000  0.29380000  0.28760000  1
  C  C110  1  0.95570000  0.13540000  0.38060000  1
  C  C111  1  0.98280000  0.37400000  0.99550000  1
  O  O112  1  0.00490000  0.19660000  0.43610000  1
  O  O113  1  0.03380000  0.96270000  0.63530000  1
  O  O114  1  0.12400000  0.73660000  0.40960000  1
  O  O115  1  0.15060000  0.02080000  0.48720000  1
  O  O116  1  0.16340000  0.89130000  0.33850000  1
  O  O117  1  0.21120000  0.33890000  0.05470000  1
  O  O118  1  0.28880000  0.16110000  0.55470000  1
  O  O119  1  0.33660000  0.60870000  0.83850000  1
  O  O120  1  0.34940000  0.47920000  0.98720000  1
  O  O121  1  0.37600000  0.76340000  0.90960000  1
  O  O122  1  0.46620000  0.53730000  0.13530000  1
  O  O123  1  0.49510000  0.30340000  0.93610000  1
  O  O124  1  0.50490000  0.69660000  0.06390000  1
  O  O125  1  0.53380000  0.46270000  0.86470000  1
  O  O126  1  0.62400000  0.23660000  0.09040000  1
  O  O127  1  0.65060000  0.52080000  0.01280000  1
  O  O128  1  0.66340000  0.39130000  0.16150000  1
  O  O129  1  0.71120000  0.83890000  0.44530000  1
  O  O130  1  0.78880000  0.66110000  0.94530000  1
  O  O131  1  0.83660000  0.10870000  0.66150000  1
  O  O132  1  0.84940000  0.97920000  0.51280000  1
  O  O133  1  0.87600000  0.26340000  0.59040000  1
  O  O134  1  0.96620000  0.03730000  0.36470000  1
  O  O135  1  0.99510000  0.80340000  0.56390000  1
