# generated using pymatgen
data_Co2H18C24N4O9
_symmetry_space_group_name_H-M   'P 1'
_cell_length_a   10.66710000
_cell_length_b   12.00630000
_cell_length_c   14.06580000
_cell_angle_alpha   106.71800000
_cell_angle_beta   102.27900000
_cell_angle_gamma   111.19000000
_symmetry_Int_Tables_number   1
_chemical_formula_structural   Co2H18C24N4O9
_chemical_formula_sum   'Co4 H36 C48 N8 O18'
_cell_volume   1504.11139213
_cell_formula_units_Z   2
loop_
 _symmetry_equiv_pos_site_id
 _symmetry_equiv_pos_as_xyz
  1  'x, y, z'
loop_
 _atom_site_type_symbol
 _atom_site_label
 _atom_site_symmetry_multiplicity
 _atom_site_fract_x
 _atom_site_fract_y
 _atom_site_fract_z
 _atom_site_occupancy
  Co  Co0  1  0.19349000  0.49579000  0.21403000  1
  Co  Co1  1  0.45213000  0.23171000  0.69025000  1
  Co  Co2  1  0.54787000  0.76829000  0.30975000  1
  Co  Co3  1  0.80651000  0.50421000  0.78597000  1
  H  H4  1  0.00250000  0.73660000  0.13890000  1
  H  H5  1  0.00340000  0.96380000  0.80080000  1
  H  H6  1  0.02540000  0.20070000  0.14100000  1
  H  H7  1  0.04770000  0.60490000  0.98920000  1
  H  H8  1  0.05440000  0.82240000  0.32130000  1
  H  H9  1  0.06670000  0.53330000  0.70600000  1
  H  H10  1  0.12230000  0.16680000  0.61410000  1
  H  H11  1  0.12970000  0.08640000  0.37230000  1
  H  H12  1  0.15990000  0.78810000  0.69110000  1
  H  H13  1  0.16340000  0.66180000  0.53280000  1
  H  H14  1  0.27130000  0.01120000  0.75070000  1
  H  H15  1  0.30230000  0.46210000  0.41930000  1
  H  H16  1  0.30620000  0.58650000  0.77010000  1
  H  H17  1  0.38050000  0.99000000  0.50120000  1
  H  H18  1  0.40630000  0.33960000  0.90040000  1
  H  H19  1  0.42400000  0.66230000  0.95300000  1
  H  H20  1  0.42500000  0.52400000  0.20700000  1
  H  H21  1  0.47700000  0.55400000  0.31400000  1
  H  H22  1  0.52300000  0.44600000  0.68600000  1
  H  H23  1  0.57500000  0.47600000  0.79300000  1
  H  H24  1  0.57600000  0.33770000  0.04700000  1
  H  H25  1  0.59370000  0.66040000  0.09960000  1
  H  H26  1  0.61950000  0.01000000  0.49880000  1
  H  H27  1  0.69380000  0.41350000  0.22990000  1
  H  H28  1  0.69770000  0.53790000  0.58070000  1
  H  H29  1  0.72870000  0.98880000  0.24930000  1
  H  H30  1  0.83660000  0.33820000  0.46720000  1
  H  H31  1  0.84010000  0.21190000  0.30890000  1
  H  H32  1  0.87030000  0.91360000  0.62770000  1
  H  H33  1  0.87770000  0.83320000  0.38590000  1
  H  H34  1  0.93330000  0.46670000  0.29400000  1
  H  H35  1  0.94560000  0.17760000  0.67870000  1
  H  H36  1  0.95230000  0.39510000  0.01080000  1
  H  H37  1  0.97460000  0.79930000  0.85900000  1
  H  H38  1  0.99660000  0.03620000  0.19920000  1
  H  H39  1  0.99750000  0.26340000  0.86110000  1
  C  C40  1  0.03840000  0.20930000  0.72550000  1
  C  C41  1  0.06040000  0.12210000  0.24490000  1
  C  C42  1  0.06910000  0.26130000  0.83380000  1
  C  C43  1  0.07770000  0.22160000  0.21090000  1
  C  C44  1  0.10160000  0.60370000  0.94528000  1
  C  C45  1  0.11200000  0.56020000  0.77850000  1
  C  C46  1  0.13930000  0.15210000  0.34770000  1
  C  C47  1  0.14570000  0.20430000  0.68710000  1
  C  C48  1  0.20540000  0.82730000  0.65160000  1
  C  C49  1  0.20790000  0.75230000  0.55770000  1
  C  C50  1  0.20990000  0.31040000  0.90050000  1
  C  C51  1  0.23260000  0.28040000  0.41420000  1
  C  C52  1  0.24160000  0.37520000  0.37441000  1
  C  C53  1  0.24690000  0.64220000  0.99119000  1
  C  C54  1  0.25610000  0.59320000  0.81650000  1
  C  C55  1  0.25820000  0.37220000  0.02006000  1
  C  C56  1  0.27130000  0.96140000  0.68640000  1
  C  C57  1  0.27760000  0.81360000  0.50112000  1
  C  C58  1  0.30020000  0.73870000  0.40570000  1
  C  C59  1  0.30700000  0.67860000  0.10914000  1
  C  C60  1  0.31170000  0.30450000  0.85529000  1
  C  C61  1  0.32610000  0.63700000  0.92530000  1
  C  C62  1  0.33080000  0.31800000  0.52440000  1
  C  C63  1  0.33690000  0.94850000  0.54031000  1
  C  C64  1  0.66310000  0.05150000  0.45969000  1
  C  C65  1  0.66920000  0.68200000  0.47560000  1
  C  C66  1  0.67390000  0.36300000  0.07470000  1
  C  C67  1  0.68830000  0.69550000  0.14471000  1
  C  C68  1  0.69300000  0.32140000  0.89086000  1
  C  C69  1  0.69980000  0.26130000  0.59430000  1
  C  C70  1  0.72240000  0.18640000  0.49888000  1
  C  C71  1  0.72870000  0.03860000  0.31360000  1
  C  C72  1  0.74180000  0.62780000  0.97994000  1
  C  C73  1  0.74390000  0.40680000  0.18350000  1
  C  C74  1  0.75310000  0.35780000  0.00881000  1
  C  C75  1  0.75840000  0.62480000  0.62559000  1
  C  C76  1  0.76740000  0.71960000  0.58580000  1
  C  C77  1  0.79010000  0.68960000  0.09950000  1
  C  C78  1  0.79210000  0.24770000  0.44230000  1
  C  C79  1  0.79460000  0.17270000  0.34840000  1
  C  C80  1  0.85430000  0.79570000  0.31290000  1
  C  C81  1  0.86070000  0.84790000  0.65230000  1
  C  C82  1  0.88800000  0.43980000  0.22150000  1
  C  C83  1  0.89840000  0.39630000  0.05472000  1
  C  C84  1  0.92230000  0.77840000  0.78910000  1
  C  C85  1  0.93090000  0.73870000  0.16620000  1
  C  C86  1  0.93960000  0.87790000  0.75510000  1
  C  C87  1  0.96160000  0.79070000  0.27450000  1
  N  N88  1  0.03420000  0.56510000  0.84138000  1
  N  N89  1  0.16610000  0.34670000  0.27369000  1
  N  N90  1  0.28250000  0.25140000  0.75056000  1
  N  N91  1  0.33510000  0.02280000  0.63134000  1
  N  N92  1  0.66490000  0.97720000  0.36866000  1
  N  N93  1  0.71750000  0.74860000  0.24944000  1
  N  N94  1  0.83390000  0.65330000  0.72631000  1
  N  N95  1  0.96580000  0.43490000  0.15862000  1
  O  O96  1  0.16333000  0.36934000  0.06080000  1
  O  O97  1  0.21659000  0.61851000  0.35963000  1
  O  O98  1  0.21720000  0.63790000  0.15104000  1
  O  O99  1  0.33460000  0.22509000  0.54799000  1
  O  O100  1  0.39056000  0.42460000  0.06981000  1
  O  O101  1  0.40260000  0.43640000  0.58297000  1
  O  O102  1  0.40297000  0.80232000  0.38268000  1
  O  O103  1  0.42395000  0.56144000  0.25822000  1
  O  O104  1  0.44152000  0.74653000  0.15672000  1
  O  O105  1  0.55848000  0.25347000  0.84328000  1
  O  O106  1  0.57605000  0.43856000  0.74178000  1
  O  O107  1  0.59703000  0.19768000  0.61732000  1
  O  O108  1  0.59740000  0.56360000  0.41703000  1
  O  O109  1  0.60944000  0.57540000  0.93019000  1
  O  O110  1  0.66540000  0.77491000  0.45201000  1
  O  O111  1  0.78280000  0.36210000  0.84896000  1
  O  O112  1  0.78341000  0.38149000  0.64037000  1
  O  O113  1  0.83667000  0.63066000  0.93920000  1
