# generated using pymatgen
data_Mn3H33C39N8O9
_symmetry_space_group_name_H-M   'P 1'
_cell_length_a   17.77030000
_cell_length_b   29.79000000
_cell_length_c   29.78999810
_cell_angle_alpha   84.89628439
_cell_angle_beta   72.64691167
_cell_angle_gamma   72.64690000
_symmetry_Int_Tables_number   1
_chemical_formula_structural   Mn3H33C39N8O9
_chemical_formula_sum   'Mn24 H264 C312 N64 O72'
_cell_volume   14367.25472811
_cell_formula_units_Z   8
loop_
 _symmetry_equiv_pos_site_id
 _symmetry_equiv_pos_as_xyz
  1  'x, y, z'
loop_
 _atom_site_type_symbol
 _atom_site_label
 _atom_site_symmetry_multiplicity
 _atom_site_fract_x
 _atom_site_fract_y
 _atom_site_fract_z
 _atom_site_occupancy
  Mn  Mn0  1  0.85126000  0.08496000  0.14200000  1
  Mn  Mn1  1  0.00674000  0.64200000  0.91504000  1
  Mn  Mn2  1  0.28933000  0.96884000  0.62022000  1
  Mn  Mn3  1  0.90955000  0.87978000  0.96884000  1
  Mn  Mn4  1  0.43622000  0.14200000  0.41504000  1
  Mn  Mn5  1  0.78497000  0.42593000  0.00500000  1
  Mn  Mn6  1  0.71089000  0.00500000  0.07407000  1
  Mn  Mn7  1  0.21004000  0.50500000  0.57406000  1
  Mn  Mn8  1  0.87839000  0.53116000  0.87978000  1
  Mn  Mn9  1  0.21589000  0.07407000  0.49500000  1
  Mn  Mn10  1  0.24183000  0.37978000  0.46884000  1
  Mn  Mn11  1  0.92178000  0.58496000  0.64200000  1
  Mn  Mn12  1  0.07822000  0.41504000  0.35800000  1
  Mn  Mn13  1  0.75817000  0.62022000  0.53116000  1
  Mn  Mn14  1  0.78411000  0.92593000  0.50500000  1
  Mn  Mn15  1  0.12161000  0.46884000  0.12022000  1
  Mn  Mn16  1  0.78996000  0.49500000  0.42594000  1
  Mn  Mn17  1  0.28910000  0.99500000  0.92594000  1
  Mn  Mn18  1  0.21503000  0.57407000  0.99500000  1
  Mn  Mn19  1  0.56378000  0.85800000  0.58496000  1
  Mn  Mn20  1  0.09045000  0.12022000  0.03116000  1
  Mn  Mn21  1  0.71067000  0.03116000  0.37978000  1
  Mn  Mn22  1  0.99326000  0.35800000  0.08496000  1
  Mn  Mn23  1  0.14874000  0.91504000  0.85800000  1
  H  H24  1  0.12100000  0.53900000  0.87300000  1
  H  H25  1  0.30280000  0.43110000  0.68730000  1
  H  H26  1  0.75650000  0.57010000  0.23350000  1
  H  H27  1  0.08460000  0.75240000  0.90360000  1
  H  H28  1  0.40170000  0.83880000  0.57860000  1
  H  H29  1  0.35290000  0.68120000  0.62620000  1
  H  H30  1  0.03880000  0.40760000  0.93880000  1
  H  H31  1  0.85460000  0.93960000  0.12180000  1
  H  H32  1  0.88830000  0.50050000  0.08730000  1
  H  H33  1  0.54250000  0.34650000  0.43210000  1
  H  H34  1  0.96000000  0.24940000  0.01280000  1
  H  H35  1  0.48280000  0.96180000  0.48180000  1
  H  H36  1  0.07420000  0.10930000  0.88830000  1
  H  H37  1  0.05360000  0.06120000  0.90760000  1
  H  H38  1  0.70940000  0.01280000  0.25060000  1
  H  H39  1  0.80960000  0.30860000  0.13800000  1
  H  H40  1  0.38520000  0.09240000  0.56120000  1
  H  H41  1  0.92640000  0.53820000  0.01820000  1
  H  H42  1  0.41060000  0.68630000  0.53330000  1
  H  H43  1  0.19390000  0.91090000  0.74750000  1
  H  H44  1  0.54430000  0.47140000  0.39640000  1
  H  H45  1  0.03750000  0.38830000  0.89070000  1
  H  H46  1  0.96460000  0.01820000  0.96180000  1
  H  H47  1  0.31650000  0.11170000  0.60930000  1
  H  H48  1  0.27300000  0.63440000  0.65180000  1
  H  H49  1  0.62180000  0.97170000  0.30050000  1
  H  H50  1  0.79930000  0.50110000  0.12130000  1
  H  H51  1  0.34870000  0.77990000  0.56910000  1
  H  H52  1  0.97640000  0.37820000  0.93960000  1
  H  H53  1  0.66300000  0.09640000  0.25240000  1
  H  H54  1  0.43970000  0.92390000  0.47470000  1
  H  H55  1  0.12650000  0.69550000  0.78110000  1
  H  H56  1  0.10600000  0.47170000  0.80050000  1
  H  H57  1  0.43540000  0.48320000  0.46580000  1
  H  H58  1  0.30610000  0.71210000  0.59050000  1
  H  H59  1  0.38760000  0.96820000  0.50860000  1
  H  H60  1  0.92230000  0.19950000  0.97170000  1
  H  H61  1  0.47610000  0.99950000  0.41270000  1
  H  H62  1  0.88880000  0.08730000  0.99950000  1
  H  H63  1  0.69270000  0.29360000  0.18820000  1
  H  H64  1  0.54290000  0.42550000  0.33630000  1
  H  H65  1  0.84000000  0.12700000  0.03900000  1
  H  H66  1  0.22890000  0.56930000  0.64830000  1
  H  H67  1  0.36120000  0.63260000  0.51320000  1
  H  H68  1  0.67800000  0.21890000  0.19550000  1
  H  H69  1  0.89620000  0.99140000  0.96820000  1
  H  H70  1  0.83830000  0.57610000  0.02530000  1
  H  H71  1  0.44680000  0.31380000  0.41300000  1
  H  H72  1  0.86440000  0.53180000  0.99140000  1
  H  H73  1  0.29420000  0.12180000  0.56040000  1
  H  H74  1  0.94140000  0.75250000  0.91090000  1
  H  H75  1  0.46700000  0.03900000  0.37300000  1
  H  H76  1  0.91440000  0.02530000  0.92390000  1
  H  H77  1  0.56010000  0.92990000  0.26650000  1
  H  H78  1  0.14020000  0.91300000  0.68620000  1
  H  H79  1  0.11910000  0.68820000  0.70640000  1
  H  H80  1  0.31130000  0.56820000  0.51140000  1
  H  H81  1  0.20740000  0.84780000  0.61260000  1
  H  H82  1  0.98030000  0.92140000  0.83880000  1
  H  H83  1  0.61820000  0.13800000  0.19140000  1
  H  H84  1  0.39520000  0.25250000  0.41090000  1
  H  H85  1  0.42170000  0.99890000  0.37870000  1
  H  H86  1  0.80040000  0.12130000  0.99890000  1
  H  H87  1  0.44480000  0.38740000  0.34780000  1
  H  H88  1  0.02720000  0.51280000  0.75060000  1
  H  H89  1  0.70180000  0.35170000  0.06930000  1
  H  H90  1  0.57880000  0.93110000  0.18730000  1
  H  H91  1  0.82660000  0.23350000  0.92990000  1
  H  H92  1  0.05240000  0.63800000  0.69140000  1
  H  H93  1  0.98820000  0.59640000  0.75240000  1
  H  H94  1  0.81910000  0.66120000  0.92140000  1
  H  H95  1  0.82640000  0.81380000  0.91300000  1
  H  H96  1  0.59260000  0.34820000  0.13440000  1
  H  H97  1  0.22220000  0.25060000  0.48720000  1
  H  H98  1  0.08400000  0.43960000  0.62180000  1
  H  H99  1  0.55350000  0.06930000  0.14830000  1
  H  H100  1  0.91780000  0.93090000  0.77990000  1
  H  H101  1  0.76610000  0.31270000  0.93110000  1
  H  H102  1  0.12080000  0.83630000  0.57450000  1
  H  H103  1  0.48180000  0.40950000  0.21210000  1
  H  H104  1  0.48630000  0.18820000  0.20640000  1
  H  H105  1  0.62050000  0.48860000  0.06820000  1
  H  H106  1  0.07180000  0.39070000  0.61170000  1
  H  H107  1  0.02540000  0.93210000  0.65350000  1
  H  H108  1  0.39690000  0.19550000  0.28110000  1
  H  H109  1  0.82000000  0.88740000  0.84780000  1
  H  H110  1  0.25940000  0.25240000  0.40360000  1
  H  H111  1  0.97910000  0.87380000  0.68120000  1
  H  H112  1  0.37140000  0.43090000  0.27990000  1
  H  H113  1  0.46590000  0.37380000  0.18120000  1
  H  H114  1  0.50620000  0.48680000  0.13260000  1
  H  H115  1  0.94390000  0.96670000  0.68630000  1
  H  H116  1  0.69770000  0.72010000  0.93090000  1
  H  H117  1  0.09350000  0.30050000  0.52830000  1
  H  H118  1  0.60910000  0.06820000  0.01140000  1
  H  H119  1  0.25620000  0.19140000  0.36200000  1
  H  H120  1  0.09880000  0.96580000  0.51680000  1
  H  H121  1  0.02240000  0.43880000  0.59240000  1
  H  H122  1  0.14420000  0.49140000  0.46820000  1
  H  H123  1  0.67890000  0.84650000  0.93210000  1
  H  H124  1  0.17730000  0.01140000  0.43180000  1
  H  H125  1  0.89660000  0.90950000  0.71210000  1
  H  H126  1  0.85230000  0.58910000  0.75250000  1
  H  H127  1  0.90760000  0.71890000  0.69550000  1
  H  H128  1  0.25950000  0.42140000  0.33880000  1
  H  H129  1  0.63020000  0.81370000  0.96670000  1
  H  H130  1  0.44080000  0.13440000  0.15180000  1
  H  H131  1  0.40310000  0.46670000  0.18630000  1
  H  H132  1  0.05930000  0.89640000  0.52860000  1
  H  H133  1  0.61560000  0.98320000  0.96580000  1
  H  H134  1  0.00990000  0.18730000  0.56890000  1
  H  H135  1  0.07940000  0.62130000  0.49890000  1
  H  H136  1  0.58140000  0.53420000  0.98320000  1
  H  H137  1  0.13640000  0.52530000  0.42390000  1
  H  H138  1  0.99000000  0.26650000  0.57010000  1
  H  H139  1  0.92480000  0.84820000  0.63440000  1
  H  H140  1  0.66780000  0.65220000  0.88740000  1
  H  H141  1  0.12280000  0.14830000  0.43070000  1
  H  H142  1  0.73940000  0.58700000  0.81380000  1
  H  H143  1  0.51570000  0.39640000  0.02860000  1
  H  H144  1  0.46840000  0.33630000  0.07450000  1
  H  H145  1  0.38900000  0.43210000  0.15350000  1
  H  H146  1  0.66030000  0.81880000  0.87380000  1
  H  H147  1  0.99400000  0.62700000  0.53900000  1
  H  H148  1  0.69530000  0.92550000  0.83630000  1
  H  H149  1  0.02440000  0.58730000  0.49950000  1
  H  H150  1  0.60870000  0.78790000  0.90950000  1
  H  H151  1  0.05540000  0.51820000  0.46180000  1
  H  H152  1  0.41210000  0.02860000  0.10360000  1
  H  H153  1  0.82550000  0.79360000  0.68820000  1
  H  H154  1  0.87440000  0.98680000  0.63260000  1
  H  H155  1  0.49300000  0.13260000  0.01320000  1
  H  H156  1  0.50700000  0.86740000  0.98680000  1
  H  H157  1  0.12560000  0.01320000  0.36740000  1
  H  H158  1  0.17450000  0.20640000  0.31180000  1
  H  H159  1  0.58790000  0.97140000  0.89640000  1
  H  H160  1  0.94460000  0.48180000  0.53820000  1
  H  H161  1  0.39130000  0.21210000  0.09050000  1
  H  H162  1  0.97560000  0.41270000  0.50050000  1
  H  H163  1  0.30470000  0.07450000  0.16370000  1
  H  H164  1  0.00600000  0.37300000  0.46100000  1
  H  H165  1  0.33970000  0.18120000  0.12620000  1
  H  H166  1  0.61100000  0.56790000  0.84650000  1
  H  H167  1  0.53160000  0.66370000  0.92550000  1
  H  H168  1  0.48430000  0.60360000  0.97140000  1
  H  H169  1  0.26060000  0.41300000  0.18620000  1
  H  H170  1  0.87720000  0.85170000  0.56930000  1
  H  H171  1  0.33220000  0.34780000  0.11260000  1
  H  H172  1  0.07520000  0.15180000  0.36560000  1
  H  H173  1  0.01000000  0.73350000  0.42990000  1
  H  H174  1  0.86360000  0.47470000  0.57610000  1
  H  H175  1  0.41860000  0.46580000  0.01680000  1
  H  H176  1  0.92060000  0.37870000  0.50110000  1
  H  H177  1  0.99010000  0.81270000  0.43110000  1
  H  H178  1  0.38440000  0.01680000  0.03420000  1
  H  H179  1  0.94070000  0.10360000  0.47140000  1
  H  H180  1  0.59690000  0.53330000  0.81370000  1
  H  H181  1  0.55920000  0.86560000  0.84820000  1
  H  H182  1  0.36980000  0.18630000  0.03330000  1
  H  H183  1  0.74050000  0.57860000  0.66120000  1
  H  H184  1  0.09240000  0.28110000  0.30450000  1
  H  H185  1  0.14770000  0.41090000  0.24750000  1
  H  H186  1  0.10340000  0.09050000  0.28790000  1
  H  H187  1  0.82270000  0.98860000  0.56820000  1
  H  H188  1  0.32110000  0.15350000  0.06790000  1
  H  H189  1  0.85580000  0.50860000  0.53180000  1
  H  H190  1  0.97760000  0.56120000  0.40760000  1
  H  H191  1  0.90120000  0.03420000  0.48320000  1
  H  H192  1  0.74380000  0.80860000  0.63800000  1
  H  H193  1  0.39090000  0.93180000  0.98860000  1
  H  H194  1  0.90650000  0.69950000  0.47170000  1
  H  H195  1  0.30230000  0.27990000  0.06910000  1
  H  H196  1  0.05610000  0.03330000  0.31370000  1
  H  H197  1  0.49380000  0.51320000  0.86740000  1
  H  H198  1  0.53410000  0.62620000  0.81880000  1
  H  H199  1  0.62860000  0.56910000  0.72010000  1
  H  H200  1  0.02090000  0.12620000  0.31880000  1
  H  H201  1  0.74060000  0.74760000  0.59640000  1
  H  H202  1  0.18000000  0.11260000  0.15220000  1
  H  H203  1  0.60310000  0.80450000  0.71890000  1
  H  H204  1  0.97460000  0.06790000  0.34650000  1
  H  H205  1  0.92820000  0.60930000  0.38830000  1
  H  H206  1  0.37950000  0.51140000  0.93180000  1
  H  H207  1  0.51370000  0.81180000  0.79360000  1
  H  H208  1  0.51820000  0.59050000  0.78790000  1
  H  H209  1  0.87920000  0.16370000  0.42550000  1
  H  H210  1  0.23390000  0.68730000  0.06890000  1
  H  H211  1  0.08220000  0.06910000  0.22010000  1
  H  H212  1  0.44650000  0.93070000  0.85170000  1
  H  H213  1  0.91600000  0.56040000  0.37820000  1
  H  H214  1  0.77780000  0.74940000  0.51280000  1
  H  H215  1  0.40740000  0.65180000  0.86560000  1
  H  H216  1  0.17360000  0.18620000  0.08700000  1
  H  H217  1  0.18090000  0.33880000  0.07860000  1
  H  H218  1  0.01180000  0.40360000  0.24760000  1
  H  H219  1  0.94760000  0.36200000  0.30860000  1
  H  H220  1  0.17340000  0.76650000  0.07010000  1
  H  H221  1  0.42120000  0.06890000  0.81270000  1
  H  H222  1  0.29820000  0.64830000  0.93070000  1
  H  H223  1  0.97280000  0.48720000  0.24940000  1
  H  H224  1  0.55520000  0.61260000  0.65220000  1
  H  H225  1  0.19960000  0.87870000  0.00110000  1
  H  H226  1  0.57830000  0.00110000  0.62130000  1
  H  H227  1  0.60480000  0.74750000  0.58910000  1
  H  H228  1  0.38180000  0.86200000  0.80860000  1
  H  H229  1  0.01970000  0.07860000  0.16120000  1
  H  H230  1  0.79260000  0.15220000  0.38740000  1
  H  H231  1  0.68870000  0.43180000  0.48860000  1
  H  H232  1  0.88090000  0.31180000  0.29360000  1
  H  H233  1  0.85980000  0.08700000  0.31380000  1
  H  H234  1  0.43990000  0.07010000  0.73350000  1
  H  H235  1  0.08560000  0.97470000  0.07610000  1
  H  H236  1  0.53300000  0.96100000  0.62700000  1
  H  H237  1  0.05860000  0.24750000  0.08910000  1
  H  H238  1  0.70580000  0.87820000  0.43960000  1
  H  H239  1  0.13560000  0.46820000  0.00860000  1
  H  H240  1  0.55320000  0.68620000  0.58700000  1
  H  H241  1  0.16170000  0.42390000  0.97470000  1
  H  H242  1  0.10380000  0.00860000  0.03180000  1
  H  H243  1  0.32200000  0.78110000  0.80450000  1
  H  H244  1  0.63880000  0.36740000  0.48680000  1
  H  H245  1  0.77110000  0.43070000  0.35170000  1
  H  H246  1  0.16000000  0.87300000  0.96100000  1
  H  H247  1  0.45710000  0.57450000  0.66370000  1
  H  H248  1  0.30730000  0.70640000  0.81180000  1
  H  H249  1  0.11120000  0.91270000  0.00050000  1
  H  H250  1  0.52390000  0.00050000  0.58730000  1
  H  H251  1  0.07770000  0.80050000  0.02830000  1
  H  H252  1  0.61240000  0.03180000  0.49140000  1
  H  H253  1  0.69390000  0.28790000  0.40950000  1
  H  H254  1  0.56460000  0.51680000  0.53420000  1
  H  H255  1  0.89400000  0.52830000  0.19950000  1
  H  H256  1  0.87350000  0.30450000  0.21890000  1
  H  H257  1  0.56030000  0.07610000  0.52530000  1
  H  H258  1  0.33700000  0.90360000  0.74760000  1
  H  H259  1  0.02360000  0.62180000  0.06040000  1
  H  H260  1  0.65130000  0.22010000  0.43090000  1
  H  H261  1  0.20070000  0.49890000  0.87870000  1
  H  H262  1  0.37820000  0.02830000  0.69950000  1
  H  H263  1  0.72700000  0.36560000  0.34820000  1
  H  H264  1  0.68350000  0.88830000  0.39070000  1
  H  H265  1  0.03540000  0.98180000  0.03820000  1
  H  H266  1  0.96250000  0.61170000  0.10930000  1
  H  H267  1  0.45570000  0.52860000  0.60360000  1
  H  H268  1  0.80610000  0.08910000  0.25250000  1
  H  H269  1  0.58940000  0.31370000  0.46670000  1
  H  H270  1  0.07360000  0.46180000  0.98180000  1
  H  H271  1  0.61480000  0.90760000  0.43880000  1
  H  H272  1  0.19040000  0.69140000  0.86200000  1
  H  H273  1  0.29060000  0.98720000  0.74940000  1
  H  H274  1  0.94640000  0.93880000  0.09240000  1
  H  H275  1  0.92580000  0.89070000  0.11170000  1
  H  H276  1  0.51720000  0.03820000  0.51820000  1
  H  H277  1  0.04000000  0.75060000  0.98720000  1
  H  H278  1  0.45750000  0.65350000  0.56790000  1
  H  H279  1  0.11170000  0.49950000  0.91270000  1
  H  H280  1  0.14540000  0.06040000  0.87820000  1
  H  H281  1  0.96120000  0.59240000  0.06120000  1
  H  H282  1  0.64710000  0.31880000  0.37380000  1
  H  H283  1  0.59830000  0.16120000  0.42140000  1
  H  H284  1  0.91540000  0.24760000  0.09640000  1
  H  H285  1  0.24350000  0.42990000  0.76650000  1
  H  H286  1  0.69720000  0.56890000  0.31270000  1
  H  H287  1  0.87900000  0.46100000  0.12700000  1
  C  C288  1  0.09516000  0.07817000  0.90113000  1
  C  C289  1  0.53457000  0.08313000  0.46101000  1
  C  C290  1  0.56589000  0.19299000  0.42159000  1
  C  C291  1  0.86728000  0.24126000  0.11696000  1
  C  C292  1  0.86183000  0.19462000  0.12150000  1
  C  C293  1  0.41568000  0.68355000  0.56569000  1
  C  C294  1  0.55337000  0.27406000  0.42480000  1
  C  C295  1  0.06941000  0.84172000  0.90636000  1
  C  C296  1  0.40180000  0.77226000  0.57354000  1
  C  C297  1  0.21154000  0.44753000  0.74699000  1
  C  C298  1  0.85338000  0.48089000  0.10441000  1
  C  C299  1  0.24671000  0.44828000  0.69990000  1
  C  C300  1  0.80485000  0.27748000  0.14142000  1
  C  C301  1  0.34864000  0.68264000  0.59368000  1
  C  C302  1  0.79009000  0.18607000  0.15181000  1
  C  C303  1  0.88621000  0.91642000  0.05506000  1
  C  C304  1  0.44169000  0.94524000  0.49732000  1
  C  C305  1  0.90307000  0.33918000  0.02906000  1
  C  C306  1  0.58887000  0.09364000  0.34172000  1
  C  C307  1  0.00371000  0.40113000  0.92183000  1
  C  C308  1  0.00442000  0.96101000  0.91687000  1
  C  C309  1  0.68166000  0.99687000  0.23759000  1
  C  C310  1  0.91925000  0.26241000  0.99687000  1
  C  C311  1  0.84357000  0.45080000  0.07070000  1
  C  C312  1  0.32168000  0.64009000  0.58515000  1
  C  C313  1  0.73569000  0.26856000  0.17084000  1
  C  C314  1  0.28338000  0.62119000  0.62185000  1
  C  C315  1  0.32667000  0.09887000  0.57817000  1
  C  C316  1  0.74225000  0.02906000  0.16082000  1
  C  C317  1  0.72749000  0.22404000  0.17556000  1
  C  C318  1  0.50177000  0.45683000  0.40083000  1
  C  C319  1  0.63081000  0.97196000  0.26742000  1
  C  C320  1  0.12981000  0.47196000  0.76742000  1
  C  C321  1  0.47814000  0.28246000  0.41686000  1
  C  C322  1  0.13673000  0.91450000  0.75410000  1
  C  C323  1  0.88425000  0.55476000  0.00268000  1
  C  C324  1  0.30263000  0.05506000  0.58358000  1
  C  C325  1  0.93901000  0.00268000  0.94524000  1
  C  C326  1  0.92129000  0.58313000  0.96101000  1
  C  C327  1  0.69225000  0.99883000  0.18989000  1
  C  C328  1  0.88214000  0.31011000  0.99883000  1
  C  C329  1  0.43796000  0.46270000  0.44238000  1
  C  C330  1  0.25606000  0.58214000  0.61986000  1
  C  C331  1  0.33364000  0.62006000  0.54166000  1
  C  C332  1  0.20346000  0.47326000  0.66996000  1
  C  C333  1  0.09695000  0.67556000  0.77596000  1
  C  C334  1  0.05810000  0.65181000  0.81393000  1
  C  C335  1  0.89823000  0.23258000  0.97196000  1
  C  C336  1  0.60854000  0.11696000  0.25874000  1
  C  C337  1  0.50145000  0.42873000  0.36557000  1
  C  C338  1  0.44877000  0.24590000  0.41450000  1
  C  C339  1  0.55645000  0.12150000  0.30538000  1
  C  C340  1  0.94127000  0.44494000  0.91642000  1
  C  C341  1  0.83427000  0.10441000  0.01911000  1
  C  C342  1  0.30408000  0.58120000  0.54084000  1
  C  C343  1  0.79437000  0.07070000  0.04920000  1
  C  C344  1  0.59394000  0.94753000  0.24699000  1
  C  C345  1  0.43868000  0.01911000  0.39559000  1
  C  C346  1  0.37797000  0.43977000  0.45069000  1
  C  C347  1  0.09347000  0.67084000  0.73144000  1
  C  C348  1  0.65332000  0.97326000  0.16996000  1
  C  C349  1  0.10500000  0.91686000  0.71754000  1
  C  C350  1  0.01667000  0.62150000  0.80538000  1
  C  C351  1  0.08388000  0.49687000  0.73759000  1
  C  C352  1  0.01252000  0.92159000  0.80701000  1
  C  C353  1  0.97577000  0.59364000  0.84172000  1
  C  C354  1  0.44341000  0.40609000  0.37249000  1
  C  C355  1  0.11903000  0.49883000  0.68989000  1
  C  C356  1  0.31148000  0.44981000  0.49425000  1
  C  C357  1  0.89083000  0.74590000  0.91450000  1
  C  C358  1  0.60511000  0.94828000  0.19990000  1
  C  C359  1  0.58233000  0.14142000  0.22252000  1
  C  C360  1  0.82328000  0.33004000  0.97326000  1
  C  C361  1  0.38130000  0.40937000  0.41503000  1
  C  C362  1  0.36507000  0.04920000  0.42930000  1
  C  C363  1  0.20367000  0.91503000  0.59063000  1
  C  C364  1  0.47616000  0.15181000  0.31393000  1
  C  C365  1  0.84093000  0.25301000  0.94753000  1
  C  C366  1  0.18410000  0.87249000  0.59391000  1
  C  C367  1  0.05373000  0.64142000  0.72252000  1
  C  C368  1  0.01576000  0.61696000  0.75874000  1
  C  C369  1  0.80501000  0.30010000  0.94828000  1
  C  C370  1  0.02183000  0.92480000  0.72594000  1
  C  C371  1  0.97534000  0.92646000  0.77226000  1
  C  C372  1  0.19427000  0.99425000  0.55019000  1
  C  C373  1  0.66180000  0.38014000  0.08214000  1
  C  C374  1  0.27131000  0.16082000  0.47094000  1
  C  C375  1  0.81953000  0.69299000  0.92159000  1
  C  C376  1  0.82254000  0.78246000  0.91686000  1
  C  C377  1  0.74446000  0.94981000  0.99425000  1
  C  C378  1  0.50425000  0.17084000  0.23144000  1
  C  C379  1  0.17134000  0.95069000  0.56023000  1
  C  C380  1  0.06787000  0.52906000  0.66082000  1
  C  C381  1  0.45153000  0.17556000  0.27596000  1
  C  C382  1  0.59543000  0.37815000  0.12119000  1
  C  C383  1  0.79430000  0.90937000  0.91503000  1
  C  C384  1  0.13298000  0.86557000  0.57127000  1
  C  C385  1  0.14231000  0.41642000  0.55506000  1
  C  C386  1  0.61472000  0.45916000  0.08120000  1
  C  C387  1  0.19108000  0.18989000  0.50117000  1
  C  C388  1  0.73871000  0.50575000  0.94981000  1
  C  C389  1  0.73157000  0.93977000  0.95069000  1
  C  C390  1  0.17853000  0.23759000  0.50313000  1
  C  C391  1  0.53823000  0.41485000  0.14009000  1
  C  C392  1  0.74760000  0.72774000  0.92646000  1
  C  C393  1  0.07446000  0.42183000  0.59887000  1
  C  C394  1  0.74777000  0.77406000  0.92480000  1
  C  C395  1  0.54630000  0.45834000  0.12006000  1
  C  C396  1  0.98137000  0.93431000  0.68355000  1
  C  C397  1  0.54194000  0.08214000  0.11986000  1
  C  C398  1  0.11966000  0.94238000  0.53730000  1
  C  C399  1  0.12658000  0.16996000  0.52674000  1
  C  C400  1  0.46872000  0.40632000  0.18264000  1
  C  C401  1  0.77801000  0.90609000  0.87249000  1
  C  C402  1  0.09740000  0.90083000  0.54317000  1
  C  C403  1  0.08573000  0.57070000  0.54920000  1
  C  C404  1  0.10277000  0.26742000  0.52804000  1
  C  C405  1  0.94232000  0.90632000  0.68264000  1
  C  C406  1  0.68226000  0.54931000  0.93977000  1
  C  C407  1  0.70933000  0.58497000  0.90937000  1
  C  C408  1  0.57388000  0.08120000  0.04084000  1
  C  C409  1  0.22550000  0.25874000  0.38304000  1
  C  C410  1  0.05339000  0.19990000  0.55172000  1
  C  C411  1  0.65696000  0.96270000  0.94238000  1
  C  C412  1  0.66492000  0.81645000  0.93431000  1
  C  C413  1  0.32594000  0.42646000  0.27226000  1
  C  C414  1  0.47358000  0.12119000  0.12185000  1
  C  C415  1  0.04147000  0.24699000  0.55247000  1
  C  C416  1  0.18251000  0.34172000  0.40636000  1
  C  C417  1  0.40077000  0.43431000  0.18355000  1
  C  C418  1  0.22375000  0.22252000  0.35858000  1
  C  C419  1  0.15508000  0.04084000  0.41880000  1
  C  C420  1  0.70425000  0.92873000  0.86557000  1
  C  C421  1  0.25888000  0.42159000  0.30701000  1
  C  C422  1  0.59934000  0.55762000  0.96270000  1
  C  C423  1  0.04221000  0.60441000  0.51911000  1
  C  C424  1  0.11307000  0.50268000  0.44524000  1
  C  C425  1  0.65050000  0.62751000  0.90609000  1
  C  C426  1  0.17795000  0.30538000  0.37850000  1
  C  C427  1  0.32743000  0.42480000  0.22594000  1
  C  C428  1  0.80533000  0.58550000  0.74590000  1
  C  C429  1  0.87291000  0.72404000  0.67556000  1
  C  C430  1  0.90683000  0.91485000  0.64009000  1
  C  C431  1  0.50464000  0.12006000  0.04166000  1
  C  C432  1  0.12408000  0.11986000  0.41786000  1
  C  C433  1  0.64057000  0.95683000  0.90083000  1
  C  C434  1  0.45308000  0.14009000  0.08515000  1
  C  C435  1  0.11770000  0.46101000  0.41687000  1
  C  C436  1  0.62496000  0.81736000  0.90632000  1
  C  C437  1  0.90523000  0.87815000  0.62119000  1
  C  C438  1  0.87203000  0.68607000  0.65181000  1
  C  C439  1  0.73940000  0.58314000  0.78246000  1
  C  C440  1  0.12470000  0.04166000  0.37994000  1
  C  C441  1  0.17509000  0.23144000  0.32916000  1
  C  C442  1  0.45860000  0.40083000  0.04317000  1
  C  C443  1  0.43018000  0.36557000  0.07127000  1
  C  C444  1  0.56982000  0.63443000  0.92873000  1
  C  C445  1  0.54140000  0.59917000  0.95683000  1
  C  C446  1  0.82491000  0.76856000  0.67084000  1
  C  C447  1  0.87530000  0.95834000  0.62006000  1
  C  C448  1  0.26060000  0.41686000  0.21754000  1
  C  C449  1  0.12797000  0.31393000  0.34819000  1
  C  C450  1  0.09477000  0.12185000  0.37881000  1
  C  C451  1  0.37504000  0.18264000  0.09368000  1
  C  C452  1  0.88230000  0.53899000  0.58313000  1
  C  C453  1  0.54692000  0.85991000  0.91485000  1
  C  C454  1  0.35943000  0.04317000  0.09917000  1
  C  C455  1  0.87592000  0.88014000  0.58214000  1
  C  C456  1  0.49536000  0.87994000  0.95834000  1
  C  C457  1  0.09317000  0.08515000  0.35991000  1
  C  C458  1  0.12709000  0.27596000  0.32444000  1
  C  C459  1  0.19467000  0.41450000  0.25410000  1
  C  C460  1  0.67257000  0.57520000  0.77406000  1
  C  C461  1  0.82205000  0.69462000  0.62150000  1
  C  C462  1  0.34950000  0.37249000  0.09391000  1
  C  C463  1  0.88693000  0.49732000  0.55476000  1
  C  C464  1  0.95779000  0.39559000  0.48089000  1
  C  C465  1  0.40066000  0.44238000  0.03730000  1
  C  C466  1  0.74112000  0.57841000  0.69299000  1
  C  C467  1  0.29575000  0.07127000  0.13443000  1
  C  C468  1  0.84492000  0.95916000  0.58120000  1
  C  C469  1  0.77625000  0.77748000  0.64142000  1
  C  C470  1  0.59923000  0.56569000  0.81645000  1
  C  C471  1  0.81749000  0.65828000  0.59364000  1
  C  C472  1  0.95853000  0.75301000  0.44753000  1
  C  C473  1  0.52642000  0.87881000  0.87815000  1
  C  C474  1  0.67406000  0.57354000  0.72774000  1
  C  C475  1  0.33508000  0.18355000  0.06569000  1
  C  C476  1  0.34304000  0.03730000  0.05762000  1
  C  C477  1  0.94661000  0.80010000  0.44828000  1
  C  C478  1  0.77450000  0.74126000  0.61696000  1
  C  C479  1  0.42612000  0.91880000  0.95916000  1
  C  C480  1  0.29067000  0.41503000  0.09063000  1
  C  C481  1  0.31774000  0.45069000  0.06023000  1
  C  C482  1  0.05768000  0.09368000  0.31736000  1
  C  C483  1  0.89723000  0.73258000  0.47196000  1
  C  C484  1  0.91427000  0.42930000  0.45080000  1
  C  C485  1  0.90260000  0.09917000  0.45683000  1
  C  C486  1  0.22199000  0.09391000  0.12751000  1
  C  C487  1  0.53128000  0.59368000  0.81736000  1
  C  C488  1  0.87342000  0.83004000  0.47326000  1
  C  C489  1  0.88034000  0.05762000  0.46270000  1
  C  C490  1  0.45806000  0.91786000  0.88014000  1
  C  C491  1  0.01863000  0.06569000  0.31645000  1
  C  C492  1  0.45370000  0.54166000  0.87994000  1
  C  C493  1  0.25223000  0.22594000  0.07520000  1
  C  C494  1  0.92554000  0.57817000  0.40113000  1
  C  C495  1  0.25240000  0.27226000  0.07354000  1
  C  C496  1  0.46177000  0.58515000  0.85991000  1
  C  C497  1  0.82147000  0.76241000  0.49687000  1
  C  C498  1  0.26843000  0.06023000  0.04931000  1
  C  C499  1  0.26129000  0.49425000  0.05019000  1
  C  C500  1  0.80892000  0.81011000  0.49883000  1
  C  C501  1  0.38528000  0.54084000  0.91880000  1
  C  C502  1  0.85769000  0.58358000  0.44494000  1
  C  C503  1  0.86702000  0.13443000  0.42873000  1
  C  C504  1  0.20570000  0.09063000  0.08497000  1
  C  C505  1  0.40457000  0.62185000  0.87881000  1
  C  C506  1  0.54847000  0.82444000  0.72404000  1
  C  C507  1  0.93213000  0.47094000  0.33918000  1
  C  C508  1  0.82866000  0.04931000  0.43977000  1
  C  C509  1  0.49575000  0.82916000  0.76856000  1
  C  C510  1  0.25554000  0.05019000  0.00575000  1
  C  C511  1  0.17746000  0.21754000  0.08314000  1
  C  C512  1  0.18047000  0.30701000  0.07841000  1
  C  C513  1  0.72869000  0.83918000  0.52906000  1
  C  C514  1  0.33820000  0.61986000  0.91786000  1
  C  C515  1  0.80573000  0.00575000  0.44981000  1
  C  C516  1  0.02466000  0.07354000  0.22774000  1
  C  C517  1  0.97817000  0.07520000  0.27406000  1
  C  C518  1  0.19499000  0.69990000  0.05172000  1
  C  C519  1  0.98424000  0.38304000  0.24126000  1
  C  C520  1  0.94627000  0.35858000  0.27748000  1
  C  C521  1  0.81590000  0.12751000  0.40609000  1
  C  C522  1  0.15907000  0.74699000  0.05247000  1
  C  C523  1  0.52384000  0.84819000  0.68607000  1
  C  C524  1  0.79633000  0.08497000  0.40937000  1
  C  C525  1  0.63493000  0.95080000  0.57070000  1
  C  C526  1  0.61870000  0.59063000  0.58497000  1
  C  C527  1  0.17672000  0.66996000  0.02674000  1
  C  C528  1  0.41767000  0.85858000  0.77748000  1
  C  C529  1  0.39489000  0.05172000  0.80010000  1
  C  C530  1  0.10917000  0.25410000  0.08550000  1
  C  C531  1  0.68852000  0.55019000  0.50575000  1
  C  C532  1  0.88097000  0.50117000  0.31011000  1
  C  C533  1  0.55659000  0.59391000  0.62751000  1
  C  C534  1  0.02423000  0.40636000  0.15828000  1
  C  C535  1  0.98748000  0.07841000  0.19299000  1
  C  C536  1  0.91612000  0.50313000  0.26241000  1
  C  C537  1  0.98333000  0.37850000  0.19462000  1
  C  C538  1  0.89500000  0.08314000  0.28246000  1
  C  C539  1  0.34668000  0.02674000  0.83004000  1
  C  C540  1  0.90653000  0.32916000  0.26856000  1
  C  C541  1  0.62203000  0.56023000  0.54931000  1
  C  C542  1  0.56132000  0.98089000  0.60441000  1
  C  C543  1  0.40606000  0.05247000  0.75301000  1
  C  C544  1  0.20563000  0.92930000  0.95080000  1
  C  C545  1  0.69592000  0.41880000  0.45916000  1
  C  C546  1  0.16573000  0.89559000  0.98089000  1
  C  C547  1  0.05873000  0.55506000  0.08358000  1
  C  C548  1  0.44355000  0.87850000  0.69462000  1
  C  C549  1  0.55123000  0.75410000  0.58550000  1
  C  C550  1  0.49855000  0.57127000  0.63443000  1
  C  C551  1  0.39146000  0.88304000  0.74126000  1
  C  C552  1  0.10177000  0.76742000  0.02804000  1
  C  C553  1  0.94190000  0.34819000  0.18607000  1
  C  C554  1  0.90305000  0.32444000  0.22404000  1
  C  C555  1  0.79654000  0.52674000  0.33004000  1
  C  C556  1  0.66636000  0.37994000  0.45834000  1
  C  C557  1  0.74394000  0.41786000  0.38014000  1
  C  C558  1  0.56204000  0.53730000  0.55762000  1
  C  C559  1  0.11786000  0.68989000  0.00117000  1
  C  C560  1  0.30775000  0.00117000  0.81011000  1
  C  C561  1  0.07871000  0.41687000  0.03899000  1
  C  C562  1  0.06099000  0.99732000  0.05476000  1
  C  C563  1  0.69737000  0.94494000  0.41642000  1
  C  C564  1  0.11575000  0.44524000  0.99732000  1
  C  C565  1  0.86327000  0.08550000  0.24590000  1
  C  C566  1  0.52186000  0.71754000  0.58314000  1
  C  C567  1  0.87019000  0.52804000  0.23258000  1
  C  C568  1  0.36919000  0.02804000  0.73258000  1
  C  C569  1  0.49823000  0.54317000  0.59917000  1
  C  C570  1  0.27251000  0.77596000  0.82444000  1
  C  C571  1  0.25775000  0.97094000  0.83918000  1
  C  C572  1  0.67333000  0.90113000  0.42183000  1
  C  C573  1  0.71662000  0.37881000  0.37815000  1
  C  C574  1  0.26431000  0.73144000  0.82916000  1
  C  C575  1  0.67832000  0.35991000  0.41485000  1
  C  C576  1  0.15643000  0.54920000  0.92930000  1
  C  C577  1  0.08075000  0.73759000  0.00313000  1
  C  C578  1  0.31834000  0.00313000  0.76241000  1
  C  C579  1  0.99558000  0.03899000  0.08313000  1
  C  C580  1  0.99629000  0.59887000  0.07817000  1
  C  C581  1  0.41113000  0.90636000  0.65828000  1
  C  C582  1  0.09693000  0.66082000  0.97094000  1
  C  C583  1  0.55831000  0.05476000  0.50268000  1
  C  C584  1  0.11379000  0.08358000  0.94494000  1
  C  C585  1  0.20991000  0.81393000  0.84819000  1
  C  C586  1  0.65136000  0.31736000  0.40632000  1
  C  C587  1  0.19515000  0.72252000  0.85858000  1
  C  C588  1  0.75329000  0.55172000  0.30010000  1
  C  C589  1  0.14662000  0.51911000  0.89559000  1
  C  C590  1  0.78846000  0.55247000  0.25301000  1
  C  C591  1  0.59820000  0.22774000  0.42646000  1
  C  C592  1  0.93059000  0.15828000  0.09364000  1
  C  C593  1  0.44663000  0.72594000  0.57520000  1
  C  C594  1  0.58432000  0.31645000  0.43431000  1
  C  C595  1  0.13817000  0.80538000  0.87850000  1
  C  C596  1  0.13272000  0.75874000  0.88304000  1
  C  C597  1  0.43411000  0.80701000  0.57841000  1
  C  C598  1  0.46543000  0.91687000  0.53899000  1
  C  C599  1  0.90484000  0.92183000  0.09887000  1
  N  N600  1  0.41774000  0.92892000  0.58164000  1
  N  N601  1  0.06932000  0.88645000  0.90033000  1
  N  N602  1  0.88120000  0.40649000  0.06857000  1
  N  N603  1  0.54423000  0.09967000  0.38645000  1
  N  N604  1  0.99938000  0.91836000  0.92892000  1
  N  N605  1  0.49072000  0.20192000  0.41702000  1
  N  N606  1  0.86119000  0.38423000  0.03557000  1
  N  N607  1  0.09226000  0.91702000  0.79808000  1
  N  N608  1  0.78769000  0.06857000  0.09351000  1
  N  N609  1  0.81869000  0.94140000  0.04622000  1
  N  N610  1  0.74542000  0.03557000  0.11577000  1
  N  N611  1  0.96965000  0.59967000  0.88645000  1
  N  N612  1  0.92830000  0.57108000  0.91836000  1
  N  N613  1  0.26728000  0.56256000  0.57912000  1
  N  N614  1  0.26009000  0.04622000  0.55860000  1
  N  N615  1  0.81445000  0.92826000  0.00266000  1
  N  N616  1  0.24271000  0.00266000  0.57174000  1
  N  N617  1  0.89034000  0.70192000  0.91702000  1
  N  N618  1  0.86491000  0.45378000  0.94140000  1
  N  N619  1  0.35626000  0.09351000  0.43143000  1
  N  N620  1  0.25463000  0.42826000  0.50266000  1
  N  N621  1  0.28099000  0.11577000  0.46443000  1
  N  N622  1  0.81711000  0.49734000  0.92826000  1
  N  N623  1  0.19369000  0.44140000  0.54622000  1
  N  N624  1  0.67016000  0.42088000  0.06256000  1
  N  N625  1  0.10324000  0.53557000  0.61577000  1
  N  N626  1  0.59104000  0.06256000  0.07912000  1
  N  N627  1  0.05023000  0.56857000  0.59351000  1
  N  N628  1  0.15360000  0.07912000  0.43744000  1
  N  N629  1  0.15334000  0.41836000  0.42892000  1
  N  N630  1  0.14390000  0.38645000  0.40033000  1
  N  N631  1  0.80736000  0.58298000  0.70192000  1
  N  N632  1  0.19264000  0.41702000  0.29808000  1
  N  N633  1  0.85610000  0.61355000  0.59967000  1
  N  N634  1  0.84666000  0.58164000  0.57108000  1
  N  N635  1  0.84640000  0.92088000  0.56256000  1
  N  N636  1  0.94977000  0.43143000  0.40649000  1
  N  N637  1  0.40896000  0.93744000  0.92088000  1
  N  N638  1  0.89676000  0.46443000  0.38423000  1
  N  N639  1  0.32984000  0.57912000  0.93744000  1
  N  N640  1  0.80631000  0.55860000  0.45378000  1
  N  N641  1  0.18289000  0.50266000  0.07174000  1
  N  N642  1  0.71901000  0.88423000  0.53557000  1
  N  N643  1  0.74537000  0.57174000  0.49734000  1
  N  N644  1  0.64374000  0.90649000  0.56857000  1
  N  N645  1  0.13509000  0.54622000  0.05860000  1
  N  N646  1  0.10966000  0.29808000  0.08298000  1
  N  N647  1  0.75729000  0.99734000  0.42826000  1
  N  N648  1  0.18555000  0.07174000  0.99734000  1
  N  N649  1  0.73991000  0.95378000  0.44140000  1
  N  N650  1  0.73272000  0.43744000  0.42088000  1
  N  N651  1  0.07170000  0.42892000  0.08164000  1
  N  N652  1  0.03035000  0.40033000  0.11355000  1
  N  N653  1  0.25458000  0.96443000  0.88423000  1
  N  N654  1  0.18131000  0.05860000  0.95378000  1
  N  N655  1  0.21231000  0.93143000  0.90649000  1
  N  N656  1  0.90774000  0.08298000  0.20192000  1
  N  N657  1  0.13881000  0.61577000  0.96443000  1
  N  N658  1  0.50928000  0.79808000  0.58298000  1
  N  N659  1  0.00062000  0.08164000  0.07108000  1
  N  N660  1  0.45577000  0.90033000  0.61355000  1
  N  N661  1  0.11880000  0.59351000  0.93143000  1
  N  N662  1  0.93068000  0.11355000  0.09967000  1
  N  N663  1  0.58226000  0.07108000  0.41836000  1
  O  O664  1  0.04146000  0.68107000  0.95065000  1
  O  O665  1  0.66069000  0.06325000  0.33017000  1
  O  O666  1  0.94117000  0.88388000  0.02502000  1
  O  O667  1  0.77747000  0.04935000  0.18107000  1
  O  O668  1  0.06241000  0.97098000  0.88384000  1
  O  O669  1  0.00914000  0.83017000  0.93675000  1
  O  O670  1  0.32505000  0.02502000  0.61612000  1
  O  O671  1  0.46661000  0.11616000  0.47098000  1
  O  O672  1  0.77788000  0.14333000  0.15967000  1
  O  O673  1  0.06245000  0.65967000  0.85667000  1
  O  O674  1  0.94625000  0.61616000  0.97098000  1
  O  O675  1  0.24372000  0.47298000  0.62416000  1
  O  O676  1  0.24998000  0.91879000  0.61533000  1
  O  O677  1  0.96619000  0.47498000  0.88388000  1
  O  O678  1  0.79524000  0.47046000  0.04418000  1
  O  O679  1  0.31197000  0.47935000  0.52329000  1
  O  O680  1  0.76570000  0.04418000  0.02954000  1
  O  O681  1  0.86531000  0.88467000  0.91879000  1
  O  O682  1  0.65914000  0.97298000  0.12416000  1
  O  O683  1  0.42121000  0.15967000  0.35667000  1
  O  O684  1  0.32682000  0.18107000  0.45065000  1
  O  O685  1  0.94589000  0.56325000  0.83017000  1
  O  O686  1  0.30988000  0.02954000  0.45582000  1
  O  O687  1  0.78330000  0.37584000  0.97298000  1
  O  O688  1  0.33123000  0.38467000  0.41879000  1
  O  O689  1  0.68539000  0.97935000  0.02329000  1
  O  O690  1  0.16058000  0.54418000  0.52954000  1
  O  O691  1  0.70868000  0.47671000  0.97935000  1
  O  O692  1  0.16474000  0.02329000  0.52065000  1
  O  O693  1  0.14993000  0.38388000  0.52502000  1
  O  O694  1  0.99211000  0.54935000  0.68107000  1
  O  O695  1  0.78410000  0.58121000  0.88467000  1
  O  O696  1  0.22394000  0.33017000  0.43675000  1
  O  O697  1  0.13212000  0.12416000  0.52702000  1
  O  O698  1  0.91912000  0.64333000  0.65967000  1
  O  O699  1  0.91723000  0.52902000  0.61616000  1
  O  O700  1  0.08277000  0.47098000  0.38384000  1
  O  O701  1  0.08088000  0.35667000  0.34033000  1
  O  O702  1  0.86788000  0.87584000  0.47298000  1
  O  O703  1  0.77606000  0.66983000  0.56325000  1
  O  O704  1  0.21590000  0.41879000  0.11533000  1
  O  O705  1  0.00789000  0.45065000  0.31893000  1
  O  O706  1  0.85007000  0.61612000  0.47498000  1
  O  O707  1  0.83526000  0.97671000  0.47935000  1
  O  O708  1  0.29132000  0.52329000  0.02065000  1
  O  O709  1  0.83942000  0.45582000  0.47046000  1
  O  O710  1  0.31461000  0.02065000  0.97671000  1
  O  O711  1  0.66877000  0.61533000  0.58121000  1
  O  O712  1  0.21670000  0.62416000  0.02702000  1
  O  O713  1  0.69012000  0.97046000  0.54418000  1
  O  O714  1  0.05411000  0.43675000  0.16983000  1
  O  O715  1  0.67318000  0.81893000  0.54935000  1
  O  O716  1  0.57879000  0.84033000  0.64333000  1
  O  O717  1  0.34086000  0.02702000  0.87584000  1
  O  O718  1  0.13469000  0.11533000  0.08121000  1
  O  O719  1  0.23430000  0.95582000  0.97046000  1
  O  O720  1  0.68803000  0.52065000  0.47671000  1
  O  O721  1  0.20476000  0.52954000  0.95582000  1
  O  O722  1  0.03381000  0.52502000  0.11612000  1
  O  O723  1  0.75002000  0.08121000  0.38467000  1
  O  O724  1  0.75628000  0.52702000  0.37584000  1
  O  O725  1  0.05375000  0.38384000  0.02902000  1
  O  O726  1  0.93755000  0.34033000  0.14333000  1
  O  O727  1  0.22212000  0.85667000  0.84033000  1
  O  O728  1  0.53339000  0.88384000  0.52902000  1
  O  O729  1  0.67495000  0.97498000  0.38388000  1
  O  O730  1  0.99086000  0.16983000  0.06325000  1
  O  O731  1  0.93759000  0.02902000  0.11616000  1
  O  O732  1  0.22253000  0.95065000  0.81893000  1
  O  O733  1  0.05883000  0.11612000  0.97498000  1
  O  O734  1  0.33931000  0.93675000  0.66983000  1
  O  O735  1  0.95854000  0.31893000  0.04935000  1
