# generated using pymatgen
data_Dy2CuH12C32(NO6)4
_symmetry_space_group_name_H-M   'P 1'
_cell_length_a   10.42500000
_cell_length_b   10.62000000
_cell_length_c   11.32300000
_cell_angle_alpha   83.41000000
_cell_angle_beta   74.96000000
_cell_angle_gamma   69.67000000
_symmetry_Int_Tables_number   1
_chemical_formula_structural   Dy2CuH12C32(NO6)4
_chemical_formula_sum   'Dy2 Cu1 H12 C32 N4 O24'
_cell_volume   1134.83135543
_cell_formula_units_Z   1
loop_
 _symmetry_equiv_pos_site_id
 _symmetry_equiv_pos_as_xyz
  1  'x, y, z'
loop_
 _atom_site_type_symbol
 _atom_site_label
 _atom_site_symmetry_multiplicity
 _atom_site_fract_x
 _atom_site_fract_y
 _atom_site_fract_z
 _atom_site_occupancy
  Dy  Dy0  1  0.41301000  0.40272000  0.36825000  1
  Dy  Dy1  1  0.58699000  0.59728000  0.63175000  1
  Cu  Cu2  1  0.00000000  0.50000000  0.50000000  1
  H  H3  1  0.00590000  0.83670000  0.64800000  1
  H  H4  1  0.08320000  0.67390000  0.80070000  1
  H  H5  1  0.10730000  0.33840000  0.84340000  1
  H  H6  1  0.17780000  0.76130000  0.33530000  1
  H  H7  1  0.31540000  0.51600000  0.04940000  1
  H  H8  1  0.35430000  0.98340000  0.46240000  1
  H  H9  1  0.64570000  0.01660000  0.53760000  1
  H  H10  1  0.68460000  0.48400000  0.95060000  1
  H  H11  1  0.82220000  0.23870000  0.66470000  1
  H  H12  1  0.89270000  0.66160000  0.15660000  1
  H  H13  1  0.91680000  0.32610000  0.19930000  1
  H  H14  1  0.99410000  0.16330000  0.35200000  1
  C  C15  1  0.02470000  0.35710000  0.90460000  1
  C  C16  1  0.02820000  0.32510000  0.02460000  1
  C  C17  1  0.06780000  0.08670000  0.36380000  1
  C  C18  1  0.07320000  0.96200000  0.33540000  1
  C  C19  1  0.09010000  0.65060000  0.88110000  1
  C  C20  1  0.10570000  0.58180000  0.12340000  1
  C  C21  1  0.11210000  0.54460000  0.25360000  1
  C  C22  1  0.17120000  0.23180000  0.43710000  1
  C  C23  1  0.17550000  0.09500000  0.41080000  1
  C  C24  1  0.17750000  0.84390000  0.35530000  1
  C  C25  1  0.22070000  0.59010000  0.90950000  1
  C  C26  1  0.22820000  0.55610000  0.03050000  1
  C  C27  1  0.28140000  0.85280000  0.40600000  1
  C  C28  1  0.28210000  0.97800000  0.43140000  1
  C  C29  1  0.35200000  0.56960000  0.81010000  1
  C  C30  1  0.39190000  0.72720000  0.43730000  1
  C  C31  1  0.60810000  0.27280000  0.56270000  1
  C  C32  1  0.64800000  0.43040000  0.18990000  1
  C  C33  1  0.71790000  0.02200000  0.56860000  1
  C  C34  1  0.71860000  0.14720000  0.59400000  1
  C  C35  1  0.77180000  0.44390000  0.96950000  1
  C  C36  1  0.77930000  0.40990000  0.09050000  1
  C  C37  1  0.82250000  0.15610000  0.64470000  1
  C  C38  1  0.82450000  0.90500000  0.58920000  1
  C  C39  1  0.82880000  0.76820000  0.56290000  1
  C  C40  1  0.88790000  0.45540000  0.74640000  1
  C  C41  1  0.89430000  0.41820000  0.87660000  1
  C  C42  1  0.90990000  0.34940000  0.11890000  1
  C  C43  1  0.92680000  0.03800000  0.66460000  1
  C  C44  1  0.93220000  0.91330000  0.63620000  1
  C  C45  1  0.97180000  0.67490000  0.97540000  1
  C  C46  1  0.97530000  0.64290000  0.09540000  1
  N  N47  1  0.03980000  0.04400000  0.71690000  1
  N  N48  1  0.16920000  0.26130000  0.05200000  1
  N  N49  1  0.83080000  0.73870000  0.94800000  1
  N  N50  1  0.96020000  0.95600000  0.28310000  1
  O  O51  1  0.00290000  0.44110000  0.66950000  1
  O  O52  1  0.05060000  0.15160000  0.72530000  1
  O  O53  1  0.05140000  0.31870000  0.45450000  1
  O  O54  1  0.12870000  0.93730000  0.73770000  1
  O  O55  1  0.17600000  0.24770000  0.15880000  1
  O  O56  1  0.22920000  0.50380000  0.28020000  1
  O  O57  1  0.27110000  0.23410000  0.96790000  1
  O  O58  1  0.28290000  0.24910000  0.43960000  1
  O  O59  1  0.34170000  0.60880000  0.70220000  1
  O  O60  1  0.39660000  0.61680000  0.40510000  1
  O  O61  1  0.47100000  0.51860000  0.83510000  1
  O  O62  1  0.47160000  0.74170000  0.49640000  1
  O  O63  1  0.52840000  0.25830000  0.50360000  1
  O  O64  1  0.52900000  0.48140000  0.16490000  1
  O  O65  1  0.60340000  0.38320000  0.59490000  1
  O  O66  1  0.65830000  0.39120000  0.29780000  1
  O  O67  1  0.71710000  0.75090000  0.56040000  1
  O  O68  1  0.72890000  0.76590000  0.03210000  1
  O  O69  1  0.77080000  0.49620000  0.71980000  1
  O  O70  1  0.82400000  0.75230000  0.84120000  1
  O  O71  1  0.87130000  0.06270000  0.26230000  1
  O  O72  1  0.94860000  0.68130000  0.54550000  1
  O  O73  1  0.94940000  0.84840000  0.27470000  1
  O  O74  1  0.99710000  0.55890000  0.33050000  1
