# generated using pymatgen
data_Mn3P2H23(C3O)14
_symmetry_space_group_name_H-M   'P 1'
_cell_length_a   20.05940000
_cell_length_b   24.99430000
_cell_length_c   25.06450000
_cell_angle_alpha   90.00000000
_cell_angle_beta   90.00000000
_cell_angle_gamma   90.00000000
_symmetry_Int_Tables_number   1
_chemical_formula_structural   Mn3P2H23(C3O)14
_chemical_formula_sum   'Mn24 P16 H184 C336 O112'
_cell_volume   12566.60494316
_cell_formula_units_Z   8
loop_
 _symmetry_equiv_pos_site_id
 _symmetry_equiv_pos_as_xyz
  1  'x, y, z'
loop_
 _atom_site_type_symbol
 _atom_site_label
 _atom_site_symmetry_multiplicity
 _atom_site_fract_x
 _atom_site_fract_y
 _atom_site_fract_z
 _atom_site_occupancy
  Mn  Mn0  1  0.08044000  0.09097000  0.07587000  1
  Mn  Mn1  1  0.08044000  0.59097000  0.42413000  1
  Mn  Mn2  1  0.08137000  0.02650000  0.58406000  1
  Mn  Mn3  1  0.08137000  0.52650000  0.91594000  1
  Mn  Mn4  1  0.24800000  0.05887000  0.12666000  1
  Mn  Mn5  1  0.24800000  0.55887000  0.37334000  1
  Mn  Mn6  1  0.25200000  0.05887000  0.62666000  1
  Mn  Mn7  1  0.25200000  0.55887000  0.87334000  1
  Mn  Mn8  1  0.41863000  0.02650000  0.08406000  1
  Mn  Mn9  1  0.41863000  0.52650000  0.41594000  1
  Mn  Mn10  1  0.41956000  0.09097000  0.57587000  1
  Mn  Mn11  1  0.41956000  0.59097000  0.92413000  1
  Mn  Mn12  1  0.58044000  0.40903000  0.07587000  1
  Mn  Mn13  1  0.58044000  0.90903000  0.42413000  1
  Mn  Mn14  1  0.58137000  0.47350000  0.58406000  1
  Mn  Mn15  1  0.58137000  0.97350000  0.91594000  1
  Mn  Mn16  1  0.74800000  0.44113000  0.12666000  1
  Mn  Mn17  1  0.74800000  0.94113000  0.37334000  1
  Mn  Mn18  1  0.75200000  0.44113000  0.62666000  1
  Mn  Mn19  1  0.75200000  0.94113000  0.87334000  1
  Mn  Mn20  1  0.91863000  0.47350000  0.08406000  1
  Mn  Mn21  1  0.91863000  0.97350000  0.41594000  1
  Mn  Mn22  1  0.91956000  0.40903000  0.57587000  1
  Mn  Mn23  1  0.91956000  0.90903000  0.92413000  1
  P  P24  1  0.08838000  0.23554000  0.40359000  1
  P  P25  1  0.08838000  0.73554000  0.09641000  1
  P  P26  1  0.09176000  0.38060000  0.59406000  1
  P  P27  1  0.09176000  0.88060000  0.90594000  1
  P  P28  1  0.40824000  0.38060000  0.09406000  1
  P  P29  1  0.40824000  0.88060000  0.40594000  1
  P  P30  1  0.41162000  0.23554000  0.90359000  1
  P  P31  1  0.41162000  0.73554000  0.59641000  1
  P  P32  1  0.58838000  0.26446000  0.40359000  1
  P  P33  1  0.58838000  0.76446000  0.09641000  1
  P  P34  1  0.59176000  0.11940000  0.59406000  1
  P  P35  1  0.59176000  0.61940000  0.90594000  1
  P  P36  1  0.90824000  0.11940000  0.09406000  1
  P  P37  1  0.90824000  0.61940000  0.40594000  1
  P  P38  1  0.91162000  0.26446000  0.90359000  1
  P  P39  1  0.91162000  0.76446000  0.59641000  1
  H  H40  1  0.00720000  0.20100000  0.31780000  1
  H  H41  1  0.00720000  0.70100000  0.18220000  1
  H  H42  1  0.01210000  0.42040000  0.67860000  1
  H  H43  1  0.01210000  0.92040000  0.82140000  1
  H  H44  1  0.02180000  0.29020000  0.55620000  1
  H  H45  1  0.02180000  0.79020000  0.94380000  1
  H  H46  1  0.02410000  0.16070000  0.23520000  1
  H  H47  1  0.02410000  0.66070000  0.26480000  1
  H  H48  1  0.03500000  0.19820000  0.55950000  1
  H  H49  1  0.03500000  0.69820000  0.94050000  1
  H  H50  1  0.03520000  0.32620000  0.45470000  1
  H  H51  1  0.03520000  0.82620000  0.04530000  1
  H  H52  1  0.04580000  0.41680000  0.45170000  1
  H  H53  1  0.04580000  0.91680000  0.04830000  1
  H  H54  1  0.11630000  0.13720000  0.45310000  1
  H  H55  1  0.11630000  0.63720000  0.04690000  1
  H  H56  1  0.11990000  0.47810000  0.54440000  1
  H  H57  1  0.11990000  0.97810000  0.95560000  1
  H  H58  1  0.16960000  0.30890000  0.33840000  1
  H  H59  1  0.16960000  0.80890000  0.16160000  1
  H  H60  1  0.18240000  0.30980000  0.64960000  1
  H  H61  1  0.18240000  0.80980000  0.85040000  1
  H  H62  1  0.18450000  0.40100000  0.33630000  1
  H  H63  1  0.18450000  0.90100000  0.16370000  1
  H  H64  1  0.19690000  0.21750000  0.65320000  1
  H  H65  1  0.19690000  0.71750000  0.84680000  1
  H  H66  1  0.20090000  0.37240000  0.99400000  1
  H  H67  1  0.20090000  0.87240000  0.50600000  1
  H  H68  1  0.20170000  0.10140000  0.50530000  1
  H  H69  1  0.20170000  0.60140000  0.99470000  1
  H  H70  1  0.20530000  0.24430000  0.00430000  1
  H  H71  1  0.20530000  0.74430000  0.49570000  1
  H  H72  1  0.20570000  0.01420000  0.00640000  1
  H  H73  1  0.20570000  0.20230000  0.34250000  1
  H  H74  1  0.20570000  0.51420000  0.49360000  1
  H  H75  1  0.20570000  0.70230000  0.15750000  1
  H  H76  1  0.20880000  0.28050000  0.45390000  1
  H  H77  1  0.20880000  0.78050000  0.04610000  1
  H  H78  1  0.20990000  0.41350000  0.65310000  1
  H  H79  1  0.20990000  0.91350000  0.84690000  1
  H  H80  1  0.21320000  0.33600000  0.54440000  1
  H  H81  1  0.21320000  0.83600000  0.95560000  1
  H  H82  1  0.22100000  0.15990000  0.26070000  1
  H  H83  1  0.22100000  0.65990000  0.23930000  1
  H  H84  1  0.22820000  0.45800000  0.73340000  1
  H  H85  1  0.22820000  0.95800000  0.76660000  1
  H  H86  1  0.27180000  0.45800000  0.23340000  1
  H  H87  1  0.27180000  0.95800000  0.26660000  1
  H  H88  1  0.27900000  0.15990000  0.76070000  1
  H  H89  1  0.27900000  0.65990000  0.73930000  1
  H  H90  1  0.28680000  0.33600000  0.04440000  1
  H  H91  1  0.28680000  0.83600000  0.45560000  1
  H  H92  1  0.29010000  0.41350000  0.15310000  1
  H  H93  1  0.29010000  0.91350000  0.34690000  1
  H  H94  1  0.29120000  0.28050000  0.95390000  1
  H  H95  1  0.29120000  0.78050000  0.54610000  1
  H  H96  1  0.29430000  0.01420000  0.50640000  1
  H  H97  1  0.29430000  0.20230000  0.84250000  1
  H  H98  1  0.29430000  0.51420000  0.99360000  1
  H  H99  1  0.29430000  0.70230000  0.65750000  1
  H  H100  1  0.29470000  0.24430000  0.50430000  1
  H  H101  1  0.29470000  0.74430000  0.99570000  1
  H  H102  1  0.29830000  0.10140000  0.00530000  1
  H  H103  1  0.29830000  0.60140000  0.49470000  1
  H  H104  1  0.29910000  0.37240000  0.49400000  1
  H  H105  1  0.29910000  0.87240000  0.00600000  1
  H  H106  1  0.30310000  0.21750000  0.15320000  1
  H  H107  1  0.30310000  0.71750000  0.34680000  1
  H  H108  1  0.31550000  0.40100000  0.83630000  1
  H  H109  1  0.31550000  0.90100000  0.66370000  1
  H  H110  1  0.31760000  0.30980000  0.14960000  1
  H  H111  1  0.31760000  0.80980000  0.35040000  1
  H  H112  1  0.33040000  0.30890000  0.83840000  1
  H  H113  1  0.33040000  0.80890000  0.66160000  1
  H  H114  1  0.38010000  0.47810000  0.04440000  1
  H  H115  1  0.38010000  0.97810000  0.45560000  1
  H  H116  1  0.38370000  0.13720000  0.95310000  1
  H  H117  1  0.38370000  0.63720000  0.54690000  1
  H  H118  1  0.45420000  0.41680000  0.95170000  1
  H  H119  1  0.45420000  0.91680000  0.54830000  1
  H  H120  1  0.46480000  0.32620000  0.95470000  1
  H  H121  1  0.46480000  0.82620000  0.54530000  1
  H  H122  1  0.46500000  0.19820000  0.05950000  1
  H  H123  1  0.46500000  0.69820000  0.44050000  1
  H  H124  1  0.47590000  0.16070000  0.73520000  1
  H  H125  1  0.47590000  0.66070000  0.76480000  1
  H  H126  1  0.47820000  0.29020000  0.05620000  1
  H  H127  1  0.47820000  0.79020000  0.44380000  1
  H  H128  1  0.48790000  0.42040000  0.17860000  1
  H  H129  1  0.48790000  0.92040000  0.32140000  1
  H  H130  1  0.49280000  0.20100000  0.81780000  1
  H  H131  1  0.49280000  0.70100000  0.68220000  1
  H  H132  1  0.50720000  0.29900000  0.31780000  1
  H  H133  1  0.50720000  0.79900000  0.18220000  1
  H  H134  1  0.51210000  0.07960000  0.67860000  1
  H  H135  1  0.51210000  0.57960000  0.82140000  1
  H  H136  1  0.52180000  0.20980000  0.55620000  1
  H  H137  1  0.52180000  0.70980000  0.94380000  1
  H  H138  1  0.52410000  0.33930000  0.23520000  1
  H  H139  1  0.52410000  0.83930000  0.26480000  1
  H  H140  1  0.53500000  0.30180000  0.55950000  1
  H  H141  1  0.53500000  0.80180000  0.94050000  1
  H  H142  1  0.53520000  0.17380000  0.45470000  1
  H  H143  1  0.53520000  0.67380000  0.04530000  1
  H  H144  1  0.54580000  0.08320000  0.45170000  1
  H  H145  1  0.54580000  0.58320000  0.04830000  1
  H  H146  1  0.61630000  0.36280000  0.45310000  1
  H  H147  1  0.61630000  0.86280000  0.04690000  1
  H  H148  1  0.61990000  0.02190000  0.54440000  1
  H  H149  1  0.61990000  0.52190000  0.95560000  1
  H  H150  1  0.66960000  0.19110000  0.33840000  1
  H  H151  1  0.66960000  0.69110000  0.16160000  1
  H  H152  1  0.68240000  0.19020000  0.64960000  1
  H  H153  1  0.68240000  0.69020000  0.85040000  1
  H  H154  1  0.68450000  0.09900000  0.33630000  1
  H  H155  1  0.68450000  0.59900000  0.16370000  1
  H  H156  1  0.69690000  0.28250000  0.65320000  1
  H  H157  1  0.69690000  0.78250000  0.84680000  1
  H  H158  1  0.70090000  0.12760000  0.99400000  1
  H  H159  1  0.70090000  0.62760000  0.50600000  1
  H  H160  1  0.70170000  0.39860000  0.50530000  1
  H  H161  1  0.70170000  0.89860000  0.99470000  1
  H  H162  1  0.70530000  0.25570000  0.00430000  1
  H  H163  1  0.70530000  0.75570000  0.49570000  1
  H  H164  1  0.70570000  0.29770000  0.34250000  1
  H  H165  1  0.70570000  0.48580000  0.00640000  1
  H  H166  1  0.70570000  0.79770000  0.15750000  1
  H  H167  1  0.70570000  0.98580000  0.49360000  1
  H  H168  1  0.70880000  0.21950000  0.45390000  1
  H  H169  1  0.70880000  0.71950000  0.04610000  1
  H  H170  1  0.70990000  0.08650000  0.65310000  1
  H  H171  1  0.70990000  0.58650000  0.84690000  1
  H  H172  1  0.71320000  0.16400000  0.54440000  1
  H  H173  1  0.71320000  0.66400000  0.95560000  1
  H  H174  1  0.72100000  0.34010000  0.26070000  1
  H  H175  1  0.72100000  0.84010000  0.23930000  1
  H  H176  1  0.72820000  0.04200000  0.73340000  1
  H  H177  1  0.72820000  0.54200000  0.76660000  1
  H  H178  1  0.77180000  0.04200000  0.23340000  1
  H  H179  1  0.77180000  0.54200000  0.26660000  1
  H  H180  1  0.77900000  0.34010000  0.76070000  1
  H  H181  1  0.77900000  0.84010000  0.73930000  1
  H  H182  1  0.78680000  0.16400000  0.04440000  1
  H  H183  1  0.78680000  0.66400000  0.45560000  1
  H  H184  1  0.79010000  0.08650000  0.15310000  1
  H  H185  1  0.79010000  0.58650000  0.34690000  1
  H  H186  1  0.79120000  0.21950000  0.95390000  1
  H  H187  1  0.79120000  0.71950000  0.54610000  1
  H  H188  1  0.79430000  0.29770000  0.84250000  1
  H  H189  1  0.79430000  0.48580000  0.50640000  1
  H  H190  1  0.79430000  0.79770000  0.65750000  1
  H  H191  1  0.79430000  0.98580000  0.99360000  1
  H  H192  1  0.79470000  0.25570000  0.50430000  1
  H  H193  1  0.79470000  0.75570000  0.99570000  1
  H  H194  1  0.79830000  0.39860000  0.00530000  1
  H  H195  1  0.79830000  0.89860000  0.49470000  1
  H  H196  1  0.79910000  0.12760000  0.49400000  1
  H  H197  1  0.79910000  0.62760000  0.00600000  1
  H  H198  1  0.80310000  0.28250000  0.15320000  1
  H  H199  1  0.80310000  0.78250000  0.34680000  1
  H  H200  1  0.81550000  0.09900000  0.83630000  1
  H  H201  1  0.81550000  0.59900000  0.66370000  1
  H  H202  1  0.81760000  0.19020000  0.14960000  1
  H  H203  1  0.81760000  0.69020000  0.35040000  1
  H  H204  1  0.83040000  0.19110000  0.83840000  1
  H  H205  1  0.83040000  0.69110000  0.66160000  1
  H  H206  1  0.88010000  0.02190000  0.04440000  1
  H  H207  1  0.88010000  0.52190000  0.45560000  1
  H  H208  1  0.88370000  0.36280000  0.95310000  1
  H  H209  1  0.88370000  0.86280000  0.54690000  1
  H  H210  1  0.95420000  0.08320000  0.95170000  1
  H  H211  1  0.95420000  0.58320000  0.54830000  1
  H  H212  1  0.96480000  0.17380000  0.95470000  1
  H  H213  1  0.96480000  0.67380000  0.54530000  1
  H  H214  1  0.96500000  0.30180000  0.05950000  1
  H  H215  1  0.96500000  0.80180000  0.44050000  1
  H  H216  1  0.97590000  0.33930000  0.73520000  1
  H  H217  1  0.97590000  0.83930000  0.76480000  1
  H  H218  1  0.97820000  0.20980000  0.05620000  1
  H  H219  1  0.97820000  0.70980000  0.44380000  1
  H  H220  1  0.98790000  0.07960000  0.17860000  1
  H  H221  1  0.98790000  0.57960000  0.32140000  1
  H  H222  1  0.99280000  0.29900000  0.81780000  1
  H  H223  1  0.99280000  0.79900000  0.68220000  1
  C  C224  1  0.05080000  0.19288000  0.30660000  1
  C  C225  1  0.05080000  0.69288000  0.19340000  1
  C  C226  1  0.05600000  0.42780000  0.68930000  1
  C  C227  1  0.05600000  0.92780000  0.81070000  1
  C  C228  1  0.05720000  0.27551000  0.57583000  1
  C  C229  1  0.05720000  0.77551000  0.92417000  1
  C  C230  1  0.06080000  0.16830000  0.25720000  1
  C  C231  1  0.06080000  0.66830000  0.24280000  1
  C  C232  1  0.06470000  0.22055000  0.57800000  1
  C  C233  1  0.06470000  0.72055000  0.92200000  1
  C  C234  1  0.06490000  0.34112000  0.42984000  1
  C  C235  1  0.06490000  0.84112000  0.07016000  1
  C  C236  1  0.06780000  0.45380000  0.73740000  1
  C  C237  1  0.06780000  0.95380000  0.76260000  1
  C  C238  1  0.07130000  0.39530000  0.42855000  1
  C  C239  1  0.07130000  0.89530000  0.07145000  1
  C  C240  1  0.09940000  0.30682000  0.39679000  1
  C  C241  1  0.09940000  0.80682000  0.10321000  1
  C  C242  1  0.10120000  0.30924000  0.60218000  1
  C  C243  1  0.10120000  0.80924000  0.89782000  1
  C  C244  1  0.10460000  0.20537000  0.33917000  1
  C  C245  1  0.10460000  0.70537000  0.16083000  1
  C  C246  1  0.10870000  0.41299000  0.65727000  1
  C  C247  1  0.10870000  0.91299000  0.84273000  1
  C  C248  1  0.11490000  0.41844000  0.39342000  1
  C  C249  1  0.11490000  0.91844000  0.10658000  1
  C  C250  1  0.11630000  0.19872000  0.60762000  1
  C  C251  1  0.11630000  0.69872000  0.89238000  1
  C  C252  1  0.12410000  0.15526000  0.24025000  1
  C  C253  1  0.12410000  0.65526000  0.25975000  1
  C  C254  1  0.12510000  0.47847000  0.39268000  1
  C  C255  1  0.12510000  0.97847000  0.10732000  1
  C  C256  1  0.12570000  0.13842000  0.60979000  1
  C  C257  1  0.12570000  0.63842000  0.89021000  1
  C  C258  1  0.13140000  0.46579000  0.75387000  1
  C  C259  1  0.13140000  0.96579000  0.74613000  1
  C  C260  1  0.13610000  0.12518000  0.18824000  1
  C  C261  1  0.13610000  0.62518000  0.31176000  1
  C  C262  1  0.14320000  0.49508000  0.80589000  1
  C  C263  1  0.14320000  0.99508000  0.69411000  1
  C  C264  1  0.14460000  0.33065000  0.36150000  1
  C  C265  1  0.14460000  0.83065000  0.13850000  1
  C  C266  1  0.15260000  0.15882000  0.46318000  1
  C  C267  1  0.15260000  0.65882000  0.03682000  1
  C  C268  1  0.15270000  0.28729000  0.63130000  1
  C  C269  1  0.15270000  0.78729000  0.86870000  1
  C  C270  1  0.15330000  0.38576000  0.35980000  1
  C  C271  1  0.15330000  0.88576000  0.14020000  1
  C  C272  1  0.15530000  0.21187000  0.44649000  1
  C  C273  1  0.15530000  0.71187000  0.05351000  1
  C  C274  1  0.15620000  0.45658000  0.53457000  1
  C  C275  1  0.15620000  0.95658000  0.96543000  1
  C  C276  1  0.15840000  0.40351000  0.55065000  1
  C  C277  1  0.15840000  0.90351000  0.94935000  1
  C  C278  1  0.16110000  0.23211000  0.63390000  1
  C  C279  1  0.16110000  0.73211000  0.86610000  1
  C  C280  1  0.16860000  0.19339000  0.32140000  1
  C  C281  1  0.16860000  0.69339000  0.17860000  1
  C  C282  1  0.17340000  0.42399000  0.67423000  1
  C  C283  1  0.17340000  0.92399000  0.82577000  1
  C  C284  1  0.17760000  0.16820000  0.27220000  1
  C  C285  1  0.17760000  0.66820000  0.22780000  1
  C  C286  1  0.18240000  0.47210000  0.95789000  1
  C  C287  1  0.18240000  0.97210000  0.54211000  1
  C  C288  1  0.18440000  0.45051000  0.72236000  1
  C  C289  1  0.18440000  0.95051000  0.77764000  1
  C  C290  1  0.18660000  0.14582000  0.04117000  1
  C  C291  1  0.18660000  0.64582000  0.45883000  1
  C  C292  1  0.20340000  0.13744000  0.49475000  1
  C  C293  1  0.20340000  0.63744000  0.00525000  1
  C  C294  1  0.20760000  0.47813000  0.50398000  1
  C  C295  1  0.20760000  0.97813000  0.99602000  1
  C  C296  1  0.20770000  0.24416000  0.46340000  1
  C  C297  1  0.20770000  0.74416000  0.03660000  1
  C  C298  1  0.21170000  0.37229000  0.53460000  1
  C  C299  1  0.21170000  0.87229000  0.96540000  1
  C  C300  1  0.23710000  0.39399000  0.00420000  1
  C  C301  1  0.23710000  0.89399000  0.49580000  1
  C  C302  1  0.23911000  0.44719000  0.98874000  1
  C  C303  1  0.23911000  0.94719000  0.51126000  1
  C  C304  1  0.24150000  0.22263000  0.99430000  1
  C  C305  1  0.24150000  0.72263000  0.50570000  1
  C  C306  1  0.24330000  0.16972000  0.01060000  1
  C  C307  1  0.24330000  0.66972000  0.48940000  1
  C  C308  1  0.25670000  0.16972000  0.51060000  1
  C  C309  1  0.25670000  0.66972000  0.98940000  1
  C  C310  1  0.25850000  0.22263000  0.49430000  1
  C  C311  1  0.25850000  0.72263000  0.00570000  1
  C  C312  1  0.26089000  0.44719000  0.48874000  1
  C  C313  1  0.26089000  0.94719000  0.01126000  1
  C  C314  1  0.26290000  0.39399000  0.50420000  1
  C  C315  1  0.26290000  0.89399000  0.99580000  1
  C  C316  1  0.28830000  0.37229000  0.03460000  1
  C  C317  1  0.28830000  0.87229000  0.46540000  1
  C  C318  1  0.29230000  0.24416000  0.96340000  1
  C  C319  1  0.29230000  0.74416000  0.53660000  1
  C  C320  1  0.29240000  0.47813000  0.00398000  1
  C  C321  1  0.29240000  0.97813000  0.49602000  1
  C  C322  1  0.29660000  0.13744000  0.99475000  1
  C  C323  1  0.29660000  0.63744000  0.50525000  1
  C  C324  1  0.31340000  0.14582000  0.54117000  1
  C  C325  1  0.31340000  0.64582000  0.95883000  1
  C  C326  1  0.31560000  0.45051000  0.22236000  1
  C  C327  1  0.31560000  0.95051000  0.27764000  1
  C  C328  1  0.31760000  0.47210000  0.45789000  1
  C  C329  1  0.31760000  0.97210000  0.04211000  1
  C  C330  1  0.32240000  0.16820000  0.77220000  1
  C  C331  1  0.32240000  0.66820000  0.72780000  1
  C  C332  1  0.32660000  0.42399000  0.17423000  1
  C  C333  1  0.32660000  0.92399000  0.32577000  1
  C  C334  1  0.33140000  0.19339000  0.82140000  1
  C  C335  1  0.33140000  0.69339000  0.67860000  1
  C  C336  1  0.33890000  0.23211000  0.13390000  1
  C  C337  1  0.33890000  0.73211000  0.36610000  1
  C  C338  1  0.34160000  0.40351000  0.05065000  1
  C  C339  1  0.34160000  0.90351000  0.44935000  1
  C  C340  1  0.34380000  0.45658000  0.03457000  1
  C  C341  1  0.34380000  0.95658000  0.46543000  1
  C  C342  1  0.34470000  0.21187000  0.94649000  1
  C  C343  1  0.34470000  0.71187000  0.55351000  1
  C  C344  1  0.34670000  0.38576000  0.85980000  1
  C  C345  1  0.34670000  0.88576000  0.64020000  1
  C  C346  1  0.34730000  0.28729000  0.13130000  1
  C  C347  1  0.34730000  0.78729000  0.36870000  1
  C  C348  1  0.34740000  0.15882000  0.96318000  1
  C  C349  1  0.34740000  0.65882000  0.53682000  1
  C  C350  1  0.35540000  0.33065000  0.86150000  1
  C  C351  1  0.35540000  0.83065000  0.63850000  1
  C  C352  1  0.35680000  0.49508000  0.30589000  1
  C  C353  1  0.35680000  0.99508000  0.19411000  1
  C  C354  1  0.36390000  0.12518000  0.68824000  1
  C  C355  1  0.36390000  0.62518000  0.81176000  1
  C  C356  1  0.36860000  0.46579000  0.25387000  1
  C  C357  1  0.36860000  0.96579000  0.24613000  1
  C  C358  1  0.37430000  0.13842000  0.10979000  1
  C  C359  1  0.37430000  0.63842000  0.39021000  1
  C  C360  1  0.37490000  0.47847000  0.89268000  1
  C  C361  1  0.37490000  0.97847000  0.60732000  1
  C  C362  1  0.37590000  0.15526000  0.74025000  1
  C  C363  1  0.37590000  0.65526000  0.75975000  1
  C  C364  1  0.38370000  0.19872000  0.10762000  1
  C  C365  1  0.38370000  0.69872000  0.39238000  1
  C  C366  1  0.38510000  0.41844000  0.89342000  1
  C  C367  1  0.38510000  0.91844000  0.60658000  1
  C  C368  1  0.39130000  0.41299000  0.15727000  1
  C  C369  1  0.39130000  0.91299000  0.34273000  1
  C  C370  1  0.39540000  0.20537000  0.83917000  1
  C  C371  1  0.39540000  0.70537000  0.66083000  1
  C  C372  1  0.39880000  0.30924000  0.10218000  1
  C  C373  1  0.39880000  0.80924000  0.39782000  1
  C  C374  1  0.40060000  0.30682000  0.89679000  1
  C  C375  1  0.40060000  0.80682000  0.60321000  1
  C  C376  1  0.42870000  0.39530000  0.92855000  1
  C  C377  1  0.42870000  0.89530000  0.57145000  1
  C  C378  1  0.43220000  0.45380000  0.23740000  1
  C  C379  1  0.43220000  0.95380000  0.26260000  1
  C  C380  1  0.43510000  0.34112000  0.92984000  1
  C  C381  1  0.43510000  0.84112000  0.57016000  1
  C  C382  1  0.43530000  0.22055000  0.07800000  1
  C  C383  1  0.43530000  0.72055000  0.42200000  1
  C  C384  1  0.43920000  0.16830000  0.75720000  1
  C  C385  1  0.43920000  0.66830000  0.74280000  1
  C  C386  1  0.44280000  0.27551000  0.07583000  1
  C  C387  1  0.44280000  0.77551000  0.42417000  1
  C  C388  1  0.44400000  0.42780000  0.18930000  1
  C  C389  1  0.44400000  0.92780000  0.31070000  1
  C  C390  1  0.44920000  0.19288000  0.80660000  1
  C  C391  1  0.44920000  0.69288000  0.69340000  1
  C  C392  1  0.55080000  0.30712000  0.30660000  1
  C  C393  1  0.55080000  0.80712000  0.19340000  1
  C  C394  1  0.55600000  0.07220000  0.68930000  1
  C  C395  1  0.55600000  0.57220000  0.81070000  1
  C  C396  1  0.55720000  0.22449000  0.57583000  1
  C  C397  1  0.55720000  0.72449000  0.92417000  1
  C  C398  1  0.56080000  0.33170000  0.25720000  1
  C  C399  1  0.56080000  0.83170000  0.24280000  1
  C  C400  1  0.56470000  0.27945000  0.57800000  1
  C  C401  1  0.56470000  0.77945000  0.92200000  1
  C  C402  1  0.56490000  0.15888000  0.42984000  1
  C  C403  1  0.56490000  0.65888000  0.07016000  1
  C  C404  1  0.56780000  0.04620000  0.73740000  1
  C  C405  1  0.56780000  0.54620000  0.76260000  1
  C  C406  1  0.57130000  0.10470000  0.42855000  1
  C  C407  1  0.57130000  0.60470000  0.07145000  1
  C  C408  1  0.59940000  0.19318000  0.39679000  1
  C  C409  1  0.59940000  0.69318000  0.10321000  1
  C  C410  1  0.60120000  0.19076000  0.60218000  1
  C  C411  1  0.60120000  0.69076000  0.89782000  1
  C  C412  1  0.60460000  0.29463000  0.33917000  1
  C  C413  1  0.60460000  0.79463000  0.16083000  1
  C  C414  1  0.60870000  0.08701000  0.65727000  1
  C  C415  1  0.60870000  0.58701000  0.84273000  1
  C  C416  1  0.61490000  0.08156000  0.39342000  1
  C  C417  1  0.61490000  0.58156000  0.10658000  1
  C  C418  1  0.61630000  0.30128000  0.60762000  1
  C  C419  1  0.61630000  0.80128000  0.89238000  1
  C  C420  1  0.62410000  0.34474000  0.24025000  1
  C  C421  1  0.62410000  0.84474000  0.25975000  1
  C  C422  1  0.62510000  0.02153000  0.39268000  1
  C  C423  1  0.62510000  0.52153000  0.10732000  1
  C  C424  1  0.62570000  0.36158000  0.60979000  1
  C  C425  1  0.62570000  0.86158000  0.89021000  1
  C  C426  1  0.63140000  0.03421000  0.75387000  1
  C  C427  1  0.63140000  0.53421000  0.74613000  1
  C  C428  1  0.63610000  0.37482000  0.18824000  1
  C  C429  1  0.63610000  0.87482000  0.31176000  1
  C  C430  1  0.64320000  0.00492000  0.80589000  1
  C  C431  1  0.64320000  0.50492000  0.69411000  1
  C  C432  1  0.64460000  0.16935000  0.36150000  1
  C  C433  1  0.64460000  0.66935000  0.13850000  1
  C  C434  1  0.65260000  0.34118000  0.46318000  1
  C  C435  1  0.65260000  0.84118000  0.03682000  1
  C  C436  1  0.65270000  0.21271000  0.63130000  1
  C  C437  1  0.65270000  0.71271000  0.86870000  1
  C  C438  1  0.65330000  0.11424000  0.35980000  1
  C  C439  1  0.65330000  0.61424000  0.14020000  1
  C  C440  1  0.65530000  0.28813000  0.44649000  1
  C  C441  1  0.65530000  0.78813000  0.05351000  1
  C  C442  1  0.65620000  0.04342000  0.53457000  1
  C  C443  1  0.65620000  0.54342000  0.96543000  1
  C  C444  1  0.65840000  0.09649000  0.55065000  1
  C  C445  1  0.65840000  0.59649000  0.94935000  1
  C  C446  1  0.66110000  0.26789000  0.63390000  1
  C  C447  1  0.66110000  0.76789000  0.86610000  1
  C  C448  1  0.66860000  0.30661000  0.32140000  1
  C  C449  1  0.66860000  0.80661000  0.17860000  1
  C  C450  1  0.67340000  0.07601000  0.67423000  1
  C  C451  1  0.67340000  0.57601000  0.82577000  1
  C  C452  1  0.67760000  0.33180000  0.27220000  1
  C  C453  1  0.67760000  0.83180000  0.22780000  1
  C  C454  1  0.68240000  0.02790000  0.95789000  1
  C  C455  1  0.68240000  0.52790000  0.54211000  1
  C  C456  1  0.68440000  0.04949000  0.72236000  1
  C  C457  1  0.68440000  0.54949000  0.77764000  1
  C  C458  1  0.68660000  0.35418000  0.04117000  1
  C  C459  1  0.68660000  0.85418000  0.45883000  1
  C  C460  1  0.70340000  0.36256000  0.49475000  1
  C  C461  1  0.70340000  0.86256000  0.00525000  1
  C  C462  1  0.70760000  0.02187000  0.50398000  1
  C  C463  1  0.70760000  0.52187000  0.99602000  1
  C  C464  1  0.70770000  0.25584000  0.46340000  1
  C  C465  1  0.70770000  0.75584000  0.03660000  1
  C  C466  1  0.71170000  0.12771000  0.53460000  1
  C  C467  1  0.71170000  0.62771000  0.96540000  1
  C  C468  1  0.73710000  0.10601000  0.00420000  1
  C  C469  1  0.73710000  0.60601000  0.49580000  1
  C  C470  1  0.73911000  0.05281000  0.98874000  1
  C  C471  1  0.73911000  0.55281000  0.51126000  1
  C  C472  1  0.74150000  0.27737000  0.99430000  1
  C  C473  1  0.74150000  0.77737000  0.50570000  1
  C  C474  1  0.74330000  0.33028000  0.01060000  1
  C  C475  1  0.74330000  0.83028000  0.48940000  1
  C  C476  1  0.75670000  0.33028000  0.51060000  1
  C  C477  1  0.75670000  0.83028000  0.98940000  1
  C  C478  1  0.75850000  0.27737000  0.49430000  1
  C  C479  1  0.75850000  0.77737000  0.00570000  1
  C  C480  1  0.76089000  0.05281000  0.48874000  1
  C  C481  1  0.76089000  0.55281000  0.01126000  1
  C  C482  1  0.76290000  0.10601000  0.50420000  1
  C  C483  1  0.76290000  0.60601000  0.99580000  1
  C  C484  1  0.78830000  0.12771000  0.03460000  1
  C  C485  1  0.78830000  0.62771000  0.46540000  1
  C  C486  1  0.79230000  0.25584000  0.96340000  1
  C  C487  1  0.79230000  0.75584000  0.53660000  1
  C  C488  1  0.79240000  0.02187000  0.00398000  1
  C  C489  1  0.79240000  0.52187000  0.49602000  1
  C  C490  1  0.79660000  0.36256000  0.99475000  1
  C  C491  1  0.79660000  0.86256000  0.50525000  1
  C  C492  1  0.81340000  0.35418000  0.54117000  1
  C  C493  1  0.81340000  0.85418000  0.95883000  1
  C  C494  1  0.81560000  0.04949000  0.22236000  1
  C  C495  1  0.81560000  0.54949000  0.27764000  1
  C  C496  1  0.81760000  0.02790000  0.45789000  1
  C  C497  1  0.81760000  0.52790000  0.04211000  1
  C  C498  1  0.82240000  0.33180000  0.77220000  1
  C  C499  1  0.82240000  0.83180000  0.72780000  1
  C  C500  1  0.82660000  0.07601000  0.17423000  1
  C  C501  1  0.82660000  0.57601000  0.32577000  1
  C  C502  1  0.83140000  0.30661000  0.82140000  1
  C  C503  1  0.83140000  0.80661000  0.67860000  1
  C  C504  1  0.83890000  0.26789000  0.13390000  1
  C  C505  1  0.83890000  0.76789000  0.36610000  1
  C  C506  1  0.84160000  0.09649000  0.05065000  1
  C  C507  1  0.84160000  0.59649000  0.44935000  1
  C  C508  1  0.84380000  0.04342000  0.03457000  1
  C  C509  1  0.84380000  0.54342000  0.46543000  1
  C  C510  1  0.84470000  0.28813000  0.94649000  1
  C  C511  1  0.84470000  0.78813000  0.55351000  1
  C  C512  1  0.84670000  0.11424000  0.85980000  1
  C  C513  1  0.84670000  0.61424000  0.64020000  1
  C  C514  1  0.84730000  0.21271000  0.13130000  1
  C  C515  1  0.84730000  0.71271000  0.36870000  1
  C  C516  1  0.84740000  0.34118000  0.96318000  1
  C  C517  1  0.84740000  0.84118000  0.53682000  1
  C  C518  1  0.85540000  0.16935000  0.86150000  1
  C  C519  1  0.85540000  0.66935000  0.63850000  1
  C  C520  1  0.85680000  0.00492000  0.30589000  1
  C  C521  1  0.85680000  0.50492000  0.19411000  1
  C  C522  1  0.86390000  0.37482000  0.68824000  1
  C  C523  1  0.86390000  0.87482000  0.81176000  1
  C  C524  1  0.86860000  0.03421000  0.25387000  1
  C  C525  1  0.86860000  0.53421000  0.24613000  1
  C  C526  1  0.87430000  0.36158000  0.10979000  1
  C  C527  1  0.87430000  0.86158000  0.39021000  1
  C  C528  1  0.87490000  0.02153000  0.89268000  1
  C  C529  1  0.87490000  0.52153000  0.60732000  1
  C  C530  1  0.87590000  0.34474000  0.74025000  1
  C  C531  1  0.87590000  0.84474000  0.75975000  1
  C  C532  1  0.88370000  0.30128000  0.10762000  1
  C  C533  1  0.88370000  0.80128000  0.39238000  1
  C  C534  1  0.88510000  0.08156000  0.89342000  1
  C  C535  1  0.88510000  0.58156000  0.60658000  1
  C  C536  1  0.89130000  0.08701000  0.15727000  1
  C  C537  1  0.89130000  0.58701000  0.34273000  1
  C  C538  1  0.89540000  0.29463000  0.83917000  1
  C  C539  1  0.89540000  0.79463000  0.66083000  1
  C  C540  1  0.89880000  0.19076000  0.10218000  1
  C  C541  1  0.89880000  0.69076000  0.39782000  1
  C  C542  1  0.90060000  0.19318000  0.89679000  1
  C  C543  1  0.90060000  0.69318000  0.60321000  1
  C  C544  1  0.92870000  0.10470000  0.92855000  1
  C  C545  1  0.92870000  0.60470000  0.57145000  1
  C  C546  1  0.93220000  0.04620000  0.23740000  1
  C  C547  1  0.93220000  0.54620000  0.26260000  1
  C  C548  1  0.93510000  0.15888000  0.92984000  1
  C  C549  1  0.93510000  0.65888000  0.57016000  1
  C  C550  1  0.93530000  0.27945000  0.07800000  1
  C  C551  1  0.93530000  0.77945000  0.42200000  1
  C  C552  1  0.93920000  0.33170000  0.75720000  1
  C  C553  1  0.93920000  0.83170000  0.74280000  1
  C  C554  1  0.94280000  0.22449000  0.07583000  1
  C  C555  1  0.94280000  0.72449000  0.42417000  1
  C  C556  1  0.94400000  0.07220000  0.18930000  1
  C  C557  1  0.94400000  0.57220000  0.31070000  1
  C  C558  1  0.94920000  0.30712000  0.80660000  1
  C  C559  1  0.94920000  0.80712000  0.69340000  1
  O  O560  1  0.02085000  0.22153000  0.42398000  1
  O  O561  1  0.02085000  0.72153000  0.07602000  1
  O  O562  1  0.02426000  0.39503000  0.57312000  1
  O  O563  1  0.02426000  0.89503000  0.92688000  1
  O  O564  1  0.07803000  0.11014000  0.59608000  1
  O  O565  1  0.07803000  0.61014000  0.90392000  1
  O  O566  1  0.07970000  0.00741000  0.08821000  1
  O  O567  1  0.07970000  0.50741000  0.41179000  1
  O  O568  1  0.08770000  0.12204000  0.15565000  1
  O  O569  1  0.08770000  0.62204000  0.34435000  1
  O  O570  1  0.09495000  0.49783000  0.83788000  1
  O  O571  1  0.09495000  0.99783000  0.66212000  1
  O  O572  1  0.12756000  0.44840000  0.95496000  1
  O  O573  1  0.12756000  0.94840000  0.54504000  1
  O  O574  1  0.13203000  0.17071000  0.04521000  1
  O  O575  1  0.13203000  0.67071000  0.45479000  1
  O  O576  1  0.17905000  0.49480000  0.37248000  1
  O  O577  1  0.17905000  0.99480000  0.12752000  1
  O  O578  1  0.18173000  0.12251000  0.62542000  1
  O  O579  1  0.18173000  0.62251000  0.87458000  1
  O  O580  1  0.19051000  0.01832000  0.56244000  1
  O  O581  1  0.19051000  0.51832000  0.93756000  1
  O  O582  1  0.19196000  0.09816000  0.05966000  1
  O  O583  1  0.19196000  0.59816000  0.44034000  1
  O  O584  1  0.19334000  0.10644000  0.18190000  1
  O  O585  1  0.19334000  0.60644000  0.31810000  1
  O  O586  1  0.20002000  0.01460000  0.68715000  1
  O  O587  1  0.20002000  0.51460000  0.81285000  1
  O  O588  1  0.29998000  0.01460000  0.18715000  1
  O  O589  1  0.29998000  0.51460000  0.31285000  1
  O  O590  1  0.30666000  0.10644000  0.68190000  1
  O  O591  1  0.30666000  0.60644000  0.81810000  1
  O  O592  1  0.30804000  0.09816000  0.55966000  1
  O  O593  1  0.30804000  0.59816000  0.94034000  1
  O  O594  1  0.30949000  0.01832000  0.06244000  1
  O  O595  1  0.30949000  0.51832000  0.43756000  1
  O  O596  1  0.31827000  0.12251000  0.12542000  1
  O  O597  1  0.31827000  0.62251000  0.37458000  1
  O  O598  1  0.32095000  0.49480000  0.87248000  1
  O  O599  1  0.32095000  0.99480000  0.62752000  1
  O  O600  1  0.36797000  0.17071000  0.54521000  1
  O  O601  1  0.36797000  0.67071000  0.95479000  1
  O  O602  1  0.37244000  0.44840000  0.45496000  1
  O  O603  1  0.37244000  0.94840000  0.04504000  1
  O  O604  1  0.40505000  0.49783000  0.33788000  1
  O  O605  1  0.40505000  0.99783000  0.16212000  1
  O  O606  1  0.41230000  0.12204000  0.65565000  1
  O  O607  1  0.41230000  0.62204000  0.84435000  1
  O  O608  1  0.42030000  0.00741000  0.58821000  1
  O  O609  1  0.42030000  0.50741000  0.91179000  1
  O  O610  1  0.42197000  0.11014000  0.09608000  1
  O  O611  1  0.42197000  0.61014000  0.40392000  1
  O  O612  1  0.47574000  0.39503000  0.07312000  1
  O  O613  1  0.47574000  0.89503000  0.42688000  1
  O  O614  1  0.47915000  0.22153000  0.92398000  1
  O  O615  1  0.47915000  0.72153000  0.57602000  1
  O  O616  1  0.52085000  0.27847000  0.42398000  1
  O  O617  1  0.52085000  0.77847000  0.07602000  1
  O  O618  1  0.52426000  0.10497000  0.57312000  1
  O  O619  1  0.52426000  0.60497000  0.92688000  1
  O  O620  1  0.57803000  0.38986000  0.59608000  1
  O  O621  1  0.57803000  0.88986000  0.90392000  1
  O  O622  1  0.57970000  0.49259000  0.08821000  1
  O  O623  1  0.57970000  0.99259000  0.41179000  1
  O  O624  1  0.58770000  0.37796000  0.15565000  1
  O  O625  1  0.58770000  0.87796000  0.34435000  1
  O  O626  1  0.59495000  0.00217000  0.83788000  1
  O  O627  1  0.59495000  0.50217000  0.66212000  1
  O  O628  1  0.62756000  0.05160000  0.95496000  1
  O  O629  1  0.62756000  0.55160000  0.54504000  1
  O  O630  1  0.63203000  0.32929000  0.04521000  1
  O  O631  1  0.63203000  0.82929000  0.45479000  1
  O  O632  1  0.67905000  0.00520000  0.37248000  1
  O  O633  1  0.67905000  0.50520000  0.12752000  1
  O  O634  1  0.68173000  0.37749000  0.62542000  1
  O  O635  1  0.68173000  0.87749000  0.87458000  1
  O  O636  1  0.69051000  0.48168000  0.56244000  1
  O  O637  1  0.69051000  0.98168000  0.93756000  1
  O  O638  1  0.69196000  0.40184000  0.05966000  1
  O  O639  1  0.69196000  0.90184000  0.44034000  1
  O  O640  1  0.69334000  0.39356000  0.18190000  1
  O  O641  1  0.69334000  0.89356000  0.31810000  1
  O  O642  1  0.70002000  0.48540000  0.68715000  1
  O  O643  1  0.70002000  0.98540000  0.81285000  1
  O  O644  1  0.79998000  0.48540000  0.18715000  1
  O  O645  1  0.79998000  0.98540000  0.31285000  1
  O  O646  1  0.80666000  0.39356000  0.68190000  1
  O  O647  1  0.80666000  0.89356000  0.81810000  1
  O  O648  1  0.80804000  0.40184000  0.55966000  1
  O  O649  1  0.80804000  0.90184000  0.94034000  1
  O  O650  1  0.80949000  0.48168000  0.06244000  1
  O  O651  1  0.80949000  0.98168000  0.43756000  1
  O  O652  1  0.81827000  0.37749000  0.12542000  1
  O  O653  1  0.81827000  0.87749000  0.37458000  1
  O  O654  1  0.82095000  0.00520000  0.87248000  1
  O  O655  1  0.82095000  0.50520000  0.62752000  1
  O  O656  1  0.86797000  0.32929000  0.54521000  1
  O  O657  1  0.86797000  0.82929000  0.95479000  1
  O  O658  1  0.87244000  0.05160000  0.45496000  1
  O  O659  1  0.87244000  0.55160000  0.04504000  1
  O  O660  1  0.90505000  0.00217000  0.33788000  1
  O  O661  1  0.90505000  0.50217000  0.16212000  1
  O  O662  1  0.91230000  0.37796000  0.65565000  1
  O  O663  1  0.91230000  0.87796000  0.84435000  1
  O  O664  1  0.92030000  0.49259000  0.58821000  1
  O  O665  1  0.92030000  0.99259000  0.91179000  1
  O  O666  1  0.92197000  0.38986000  0.09608000  1
  O  O667  1  0.92197000  0.88986000  0.40392000  1
  O  O668  1  0.97574000  0.10497000  0.07312000  1
  O  O669  1  0.97574000  0.60497000  0.42688000  1
  O  O670  1  0.97915000  0.27847000  0.92398000  1
  O  O671  1  0.97915000  0.77847000  0.57602000  1
