# generated using pymatgen
data_MnH6(C3O)4
_symmetry_space_group_name_H-M   'P 1'
_cell_length_a   7.53500000
_cell_length_b   10.46600000
_cell_length_c   21.51300000
_cell_angle_alpha   90.00000000
_cell_angle_beta   90.00000000
_cell_angle_gamma   96.66600000
_symmetry_Int_Tables_number   1
_chemical_formula_structural   MnH6(C3O)4
_chemical_formula_sum   'Mn4 H24 C48 O16'
_cell_volume   1685.07423432
_cell_formula_units_Z   4
loop_
 _symmetry_equiv_pos_site_id
 _symmetry_equiv_pos_as_xyz
  1  'x, y, z'
loop_
 _atom_site_type_symbol
 _atom_site_label
 _atom_site_symmetry_multiplicity
 _atom_site_fract_x
 _atom_site_fract_y
 _atom_site_fract_z
 _atom_site_occupancy
  Mn  Mn0  1  0.12560000  0.66741000  0.73761000  1
  Mn  Mn1  1  0.37440000  0.33259000  0.23761000  1
  Mn  Mn2  1  0.62560000  0.66741000  0.76239000  1
  Mn  Mn3  1  0.87440000  0.33259000  0.26239000  1
  H  H4  1  0.06680000  0.64440000  0.59960000  1
  H  H5  1  0.09630000  0.42810000  0.92690000  1
  H  H6  1  0.16370000  0.96400000  0.46480000  1
  H  H7  1  0.19250000  0.35760000  0.01980000  1
  H  H8  1  0.24270000  0.88090000  0.56880000  1
  H  H9  1  0.24690000  0.07140000  0.37460000  1
  H  H10  1  0.25310000  0.92860000  0.87460000  1
  H  H11  1  0.25730000  0.11910000  0.06880000  1
  H  H12  1  0.30750000  0.64240000  0.51980000  1
  H  H13  1  0.33630000  0.03600000  0.96480000  1
  H  H14  1  0.40370000  0.57190000  0.42690000  1
  H  H15  1  0.43320000  0.35560000  0.09960000  1
  H  H16  1  0.56680000  0.64440000  0.90040000  1
  H  H17  1  0.59630000  0.42810000  0.57310000  1
  H  H18  1  0.66370000  0.96400000  0.03520000  1
  H  H19  1  0.69250000  0.35760000  0.48020000  1
  H  H20  1  0.74270000  0.88090000  0.93120000  1
  H  H21  1  0.74690000  0.07140000  0.12540000  1
  H  H22  1  0.75310000  0.92860000  0.62540000  1
  H  H23  1  0.75730000  0.11910000  0.43120000  1
  H  H24  1  0.80750000  0.64240000  0.98020000  1
  H  H25  1  0.83630000  0.03600000  0.53520000  1
  H  H26  1  0.90370000  0.57190000  0.07310000  1
  H  H27  1  0.93320000  0.35560000  0.40040000  1
  C  C28  1  0.00690000  0.41370000  0.42433000  1
  C  C29  1  0.01400000  0.10620000  0.10589000  1
  C  C30  1  0.05580000  0.54460000  0.51785000  1
  C  C31  1  0.06570000  0.17710000  0.16541000  1
  C  C32  1  0.09070000  0.02400000  0.00492000  1
  C  C33  1  0.13820000  0.08830000  0.06162000  1
  C  C34  1  0.16750000  0.94100000  0.90451000  1
  C  C35  1  0.17430000  0.45760000  0.40306000  1
  C  C36  1  0.21140000  0.45600000  0.94053000  1
  C  C37  1  0.21700000  0.00480000  0.95862000  1
  C  C38  1  0.23120000  0.58600000  0.49591000  1
  C  C39  1  0.24090000  0.41690000  0.34209000  1
  C  C40  1  0.25910000  0.58310000  0.84209000  1
  C  C41  1  0.26880000  0.41400000  0.99591000  1
  C  C42  1  0.28300000  0.99520000  0.45862000  1
  C  C43  1  0.28860000  0.54400000  0.44053000  1
  C  C44  1  0.32570000  0.54240000  0.90306000  1
  C  C45  1  0.33250000  0.05900000  0.40451000  1
  C  C46  1  0.36180000  0.91170000  0.56162000  1
  C  C47  1  0.40930000  0.97600000  0.50492000  1
  C  C48  1  0.43430000  0.82290000  0.66541000  1
  C  C49  1  0.44420000  0.45540000  0.01785000  1
  C  C50  1  0.48600000  0.89380000  0.60589000  1
  C  C51  1  0.49310000  0.58630000  0.92433000  1
  C  C52  1  0.50690000  0.41370000  0.07567000  1
  C  C53  1  0.51400000  0.10620000  0.39411000  1
  C  C54  1  0.55580000  0.54460000  0.98215000  1
  C  C55  1  0.56570000  0.17710000  0.33459000  1
  C  C56  1  0.59070000  0.02400000  0.49508000  1
  C  C57  1  0.63820000  0.08830000  0.43838000  1
  C  C58  1  0.66750000  0.94100000  0.59549000  1
  C  C59  1  0.67430000  0.45760000  0.09694000  1
  C  C60  1  0.71140000  0.45600000  0.55947000  1
  C  C61  1  0.71700000  0.00480000  0.54138000  1
  C  C62  1  0.73120000  0.58600000  0.00409000  1
  C  C63  1  0.74090000  0.41690000  0.15791000  1
  C  C64  1  0.75910000  0.58310000  0.65791000  1
  C  C65  1  0.76880000  0.41400000  0.50409000  1
  C  C66  1  0.78300000  0.99520000  0.04138000  1
  C  C67  1  0.78860000  0.54400000  0.05947000  1
  C  C68  1  0.82570000  0.54240000  0.59694000  1
  C  C69  1  0.83250000  0.05900000  0.09549000  1
  C  C70  1  0.86180000  0.91170000  0.93838000  1
  C  C71  1  0.90930000  0.97600000  0.99508000  1
  C  C72  1  0.93430000  0.82290000  0.83459000  1
  C  C73  1  0.94420000  0.45540000  0.48215000  1
  C  C74  1  0.98600000  0.89380000  0.89411000  1
  C  C75  1  0.99310000  0.58630000  0.57567000  1
  O  O76  1  0.05160000  0.81905000  0.79393000  1
  O  O77  1  0.09840000  0.55448000  0.82851000  1
  O  O78  1  0.13520000  0.35258000  0.30368000  1
  O  O79  1  0.22610000  0.22582000  0.16993000  1
  O  O80  1  0.27390000  0.77418000  0.66993000  1
  O  O81  1  0.36480000  0.64742000  0.80368000  1
  O  O82  1  0.40160000  0.44552000  0.32851000  1
  O  O83  1  0.44840000  0.18095000  0.29393000  1
  O  O84  1  0.55160000  0.81905000  0.70607000  1
  O  O85  1  0.59840000  0.55448000  0.67149000  1
  O  O86  1  0.63520000  0.35258000  0.19632000  1
  O  O87  1  0.72610000  0.22582000  0.33007000  1
  O  O88  1  0.77390000  0.77418000  0.83007000  1
  O  O89  1  0.86480000  0.64742000  0.69632000  1
  O  O90  1  0.90160000  0.44552000  0.17149000  1
  O  O91  1  0.94840000  0.18095000  0.20607000  1
