# generated using pymatgen
data_Zn3Si2H34(C7O2)8
_symmetry_space_group_name_H-M   'P 1'
_cell_length_a   13.84430000
_cell_length_b   14.56150000
_cell_length_c   23.96590000
_cell_angle_alpha   79.22990000
_cell_angle_beta   73.21190000
_cell_angle_gamma   61.61640000
_symmetry_Int_Tables_number   1
_chemical_formula_structural   Zn3Si2H34(C7O2)8
_chemical_formula_sum   'Zn6 Si4 H68 C112 O32'
_cell_volume   4062.35731519
_cell_formula_units_Z   2
loop_
 _symmetry_equiv_pos_site_id
 _symmetry_equiv_pos_as_xyz
  1  'x, y, z'
loop_
 _atom_site_type_symbol
 _atom_site_label
 _atom_site_symmetry_multiplicity
 _atom_site_fract_x
 _atom_site_fract_y
 _atom_site_fract_z
 _atom_site_occupancy
  Zn  Zn0  1  0.26978000  0.08502000  0.95488000  1
  Zn  Zn1  1  0.30968000  0.41498000  0.54512000  1
  Zn  Zn2  1  0.50000000  0.00000000  0.00000000  1
  Zn  Zn3  1  0.50000000  0.50000000  0.50000000  1
  Zn  Zn4  1  0.69032000  0.58502000  0.45488000  1
  Zn  Zn5  1  0.73022000  0.91498000  0.04512000  1
  Si  Si6  1  0.07040000  0.94778000  0.33480000  1
  Si  Si7  1  0.35298000  0.55222000  0.16520000  1
  Si  Si8  1  0.64702000  0.44778000  0.83480000  1
  Si  Si9  1  0.92960000  0.05222000  0.66520000  1
  H  H10  1  0.01130000  0.83210000  0.71110000  1
  H  H11  1  0.02240000  0.95370000  0.21930000  1
  H  H12  1  0.02770000  0.34120000  0.57900000  1
  H  H13  1  0.03710000  0.37430000  0.81690000  1
  H  H14  1  0.05210000  0.84120000  0.07900000  1
  H  H15  1  0.07030000  0.97100000  0.55220000  1
  H  H16  1  0.07710000  0.75240000  0.40020000  1
  H  H17  1  0.09760000  0.99060000  0.12280000  1
  H  H18  1  0.12030000  0.03540000  0.70220000  1
  H  H19  1  0.12810000  0.66950000  0.67290000  1
  H  H20  1  0.14210000  0.53540000  0.20220000  1
  H  H21  1  0.16690000  0.00770000  0.41050000  1
  H  H22  1  0.19400000  0.80670000  0.51470000  1
  H  H23  1  0.19540000  0.54630000  0.28070000  1
  H  H24  1  0.21100000  0.50940000  0.37720000  1
  H  H25  1  0.22830000  0.12570000  0.68310000  1
  H  H26  1  0.22970000  0.74760000  0.09980000  1
  H  H27  1  0.25180000  0.73690000  0.34310000  1
  H  H28  1  0.25650000  0.98780000  0.27000000  1
  H  H29  1  0.26260000  0.17020000  0.86420000  1
  H  H30  1  0.29700000  0.32980000  0.63580000  1
  H  H31  1  0.30020000  0.42580000  0.94660000  1
  H  H32  1  0.32740000  0.92580000  0.44660000  1
  H  H33  1  0.33050000  0.02740000  0.17340000  1
  H  H34  1  0.33180000  0.76310000  0.15690000  1
  H  H35  1  0.40650000  0.47100000  0.05220000  1
  H  H36  1  0.40890000  0.65600000  0.38300000  1
  H  H37  1  0.41490000  0.50770000  0.91050000  1
  H  H38  1  0.44550000  0.33210000  0.21110000  1
  H  H39  1  0.44790000  0.84400000  0.11700000  1
  H  H40  1  0.46870000  0.52740000  0.67340000  1
  H  H41  1  0.47050000  0.83050000  0.82710000  1
  H  H42  1  0.48460000  0.30670000  0.01470000  1
  H  H43  1  0.48570000  0.48780000  0.77000000  1
  H  H44  1  0.51430000  0.51220000  0.23000000  1
  H  H45  1  0.51540000  0.69330000  0.98530000  1
  H  H46  1  0.52950000  0.16950000  0.17290000  1
  H  H47  1  0.53130000  0.47260000  0.32660000  1
  H  H48  1  0.55210000  0.15600000  0.88300000  1
  H  H49  1  0.55450000  0.66790000  0.78890000  1
  H  H50  1  0.58510000  0.49230000  0.08950000  1
  H  H51  1  0.59110000  0.34400000  0.61700000  1
  H  H52  1  0.59350000  0.52900000  0.94780000  1
  H  H53  1  0.66820000  0.23690000  0.84310000  1
  H  H54  1  0.66950000  0.97260000  0.82660000  1
  H  H55  1  0.67260000  0.07420000  0.55340000  1
  H  H56  1  0.69980000  0.57420000  0.05340000  1
  H  H57  1  0.70300000  0.67020000  0.36420000  1
  H  H58  1  0.73740000  0.82980000  0.13580000  1
  H  H59  1  0.74350000  0.01220000  0.73000000  1
  H  H60  1  0.74820000  0.26310000  0.65690000  1
  H  H61  1  0.77030000  0.25240000  0.90020000  1
  H  H62  1  0.77170000  0.87430000  0.31690000  1
  H  H63  1  0.78900000  0.49060000  0.62280000  1
  H  H64  1  0.80460000  0.45370000  0.71930000  1
  H  H65  1  0.80600000  0.19330000  0.48530000  1
  H  H66  1  0.83310000  0.99230000  0.58950000  1
  H  H67  1  0.85790000  0.46460000  0.79780000  1
  H  H68  1  0.87190000  0.33050000  0.32710000  1
  H  H69  1  0.87970000  0.96460000  0.29780000  1
  H  H70  1  0.90240000  0.00940000  0.87720000  1
  H  H71  1  0.92290000  0.24760000  0.59980000  1
  H  H72  1  0.92970000  0.02900000  0.44780000  1
  H  H73  1  0.94790000  0.15880000  0.92100000  1
  H  H74  1  0.96290000  0.62570000  0.18310000  1
  H  H75  1  0.97230000  0.65880000  0.42100000  1
  H  H76  1  0.97760000  0.04630000  0.78070000  1
  H  H77  1  0.98870000  0.16790000  0.28890000  1
  C  C78  1  0.00867000  0.13147000  0.65299000  1
  C  C79  1  0.00938000  0.25854000  0.87050000  1
  C  C80  1  0.01438000  0.77754000  0.38310000  1
  C  C81  1  0.01751000  0.65082000  0.16596000  1
  C  C82  1  0.02819000  0.91933000  0.63609000  1
  C  C83  1  0.04710000  0.27940000  0.60400000  1
  C  C84  1  0.04767000  0.82813000  0.67073000  1
  C  C85  1  0.06950000  0.77940000  0.10400000  1
  C  C86  1  0.08310000  0.90970000  0.57750000  1
  C  C87  1  0.08530000  0.96847000  0.21033000  1
  C  C88  1  0.10099000  0.09719000  0.67723000  1
  C  C89  1  0.11844000  0.73117000  0.64835000  1
  C  C90  1  0.12459000  0.59719000  0.17723000  1
  C  C91  1  0.12472000  0.19983000  0.88313000  1
  C  C92  1  0.13011000  0.99069000  0.15269000  1
  C  C93  1  0.13092000  0.96755000  0.25481000  1
  C  C94  1  0.13842000  0.24146000  0.62950000  1
  C  C95  1  0.15690000  0.81150000  0.55490000  1
  C  C96  1  0.16571000  0.15082000  0.66596000  1
  C  C97  1  0.17502000  0.72246000  0.11690000  1
  C  C98  1  0.17531000  0.72353000  0.59045000  1
  C  C99  1  0.19113000  0.88162000  0.37152000  1
  C  C100  1  0.20687000  0.63147000  0.15299000  1
  C  C101  1  0.20768000  0.30017000  0.61687000  1
  C  C102  1  0.21615000  0.93595000  0.40415000  1
  C  C103  1  0.22075000  0.01262000  0.13828000  1
  C  C104  1  0.22324000  0.98899000  0.24013000  1
  C  C105  1  0.25322000  0.61850000  0.56566000  1
  C  C106  1  0.26410000  0.53153000  0.28967000  1
  C  C107  1  0.26539000  0.77630000  0.36472000  1
  C  C108  1  0.26807000  0.01212000  0.18254000  1
  C  C109  1  0.27238000  0.03457000  0.07627000  1
  C  C110  1  0.27349000  0.50931000  0.34731000  1
  C  C111  1  0.31020000  0.88663000  0.42677000  1
  C  C112  1  0.34226000  0.22887000  0.94701000  1
  C  C113  1  0.35328000  0.53245000  0.24519000  1
  C  C114  1  0.35881000  0.72770000  0.38888000  1
  C  C115  1  0.37165000  0.48738000  0.36172000  1
  C  C116  1  0.37640000  0.38663000  0.92677000  1
  C  C117  1  0.38003000  0.78193000  0.42121000  1
  C  C118  1  0.38322000  0.46543000  0.42373000  1
  C  C119  1  0.40641000  0.72370000  0.13528000  1
  C  C120  1  0.41639000  0.41933000  0.13609000  1
  C  C121  1  0.41683000  0.28193000  0.92121000  1
  C  C122  1  0.42970000  0.40970000  0.07750000  1
  C  C123  1  0.43738000  0.88150000  0.93434000  1
  C  C124  1  0.44375000  0.43595000  0.90415000  1
  C  C125  1  0.44427000  0.61838000  0.12848000  1
  C  C126  1  0.45236000  0.51101000  0.25987000  1
  C  C127  1  0.45347000  0.32813000  0.17073000  1
  C  C128  1  0.46273000  0.48788000  0.31746000  1
  C  C129  1  0.47539000  0.77230000  0.11112000  1
  C  C130  1  0.47670000  0.31150000  0.05490000  1
  C  C131  1  0.48186000  0.72887000  0.44701000  1
  C  C132  1  0.48929000  0.77647000  0.90955000  1
  C  C133  1  0.49796000  0.76883000  0.85165000  1
  C  C134  1  0.50204000  0.23117000  0.14835000  1
  C  C135  1  0.51071000  0.22353000  0.09045000  1
  C  C136  1  0.51814000  0.27113000  0.55299000  1
  C  C137  1  0.52330000  0.68850000  0.94510000  1
  C  C138  1  0.52461000  0.22770000  0.88888000  1
  C  C139  1  0.53727000  0.51212000  0.68254000  1
  C  C140  1  0.54653000  0.67187000  0.82927000  1
  C  C141  1  0.54764000  0.48899000  0.74013000  1
  C  C142  1  0.55573000  0.38162000  0.87152000  1
  C  C143  1  0.55625000  0.56405000  0.09585000  1
  C  C144  1  0.56262000  0.11850000  0.06566000  1
  C  C145  1  0.57030000  0.59030000  0.92250000  1
  C  C146  1  0.58317000  0.71807000  0.07879000  1
  C  C147  1  0.58361000  0.58067000  0.86391000  1
  C  C148  1  0.59359000  0.27630000  0.86472000  1
  C  C149  1  0.61678000  0.53457000  0.57627000  1
  C  C150  1  0.61997000  0.21807000  0.57879000  1
  C  C151  1  0.62360000  0.61337000  0.07323000  1
  C  C152  1  0.62835000  0.51262000  0.63828000  1
  C  C153  1  0.64119000  0.27230000  0.61112000  1
  C  C154  1  0.64672000  0.46755000  0.75481000  1
  C  C155  1  0.65774000  0.77113000  0.05299000  1
  C  C156  1  0.68980000  0.11337000  0.57323000  1
  C  C157  1  0.72651000  0.49069000  0.65269000  1
  C  C158  1  0.72762000  0.96543000  0.92373000  1
  C  C159  1  0.73193000  0.98788000  0.81746000  1
  C  C160  1  0.73461000  0.22370000  0.63528000  1
  C  C161  1  0.73590000  0.46847000  0.71033000  1
  C  C162  1  0.74678000  0.38150000  0.43434000  1
  C  C163  1  0.77676000  0.01101000  0.75987000  1
  C  C164  1  0.77925000  0.98738000  0.86172000  1
  C  C165  1  0.78385000  0.06405000  0.59585000  1
  C  C166  1  0.79232000  0.69983000  0.38313000  1
  C  C167  1  0.79313000  0.36853000  0.84701000  1
  C  C168  1  0.80887000  0.11838000  0.62848000  1
  C  C169  1  0.82469000  0.27647000  0.40955000  1
  C  C170  1  0.82498000  0.27754000  0.88310000  1
  C  C171  1  0.83429000  0.84918000  0.33404000  1
  C  C172  1  0.84310000  0.18850000  0.44510000  1
  C  C173  1  0.86158000  0.75854000  0.37050000  1
  C  C174  1  0.86908000  0.03245000  0.74519000  1
  C  C175  1  0.86989000  0.00931000  0.84731000  1
  C  C176  1  0.87528000  0.80017000  0.11687000  1
  C  C177  1  0.87541000  0.40281000  0.82277000  1
  C  C178  1  0.88156000  0.26883000  0.35165000  1
  C  C179  1  0.89901000  0.90281000  0.32277000  1
  C  C180  1  0.91470000  0.03153000  0.78967000  1
  C  C181  1  0.91690000  0.09030000  0.42250000  1
  C  C182  1  0.93050000  0.22060000  0.89600000  1
  C  C183  1  0.95233000  0.17187000  0.32927000  1
  C  C184  1  0.95290000  0.72060000  0.39600000  1
  C  C185  1  0.97181000  0.08067000  0.36391000  1
  C  C186  1  0.98249000  0.34918000  0.83404000  1
  C  C187  1  0.98562000  0.22246000  0.61690000  1
  C  C188  1  0.99062000  0.74146000  0.12950000  1
  C  C189  1  0.99133000  0.86853000  0.34701000  1
  O  O190  1  0.12770000  0.15345000  0.93235000  1
  O  O191  1  0.20510000  0.20803000  0.85077000  1
  O  O192  1  0.21350000  0.34655000  0.56765000  1
  O  O193  1  0.21917000  0.04860000  0.03806000  1
  O  O194  1  0.22633000  0.54525000  0.58699000  1
  O  O195  1  0.24207000  0.27790000  0.96996000  1
  O  O196  1  0.26390000  0.29197000  0.64923000  1
  O  O197  1  0.30583000  0.45140000  0.46194000  1
  O  O198  1  0.33632000  0.61184000  0.52512000  1
  O  O199  1  0.35857000  0.95475000  0.91301000  1
  O  O200  1  0.36513000  0.03656000  0.06722000  1
  O  O201  1  0.38997000  0.12776000  0.94232000  1
  O  O202  1  0.46005000  0.37224000  0.55768000  1
  O  O203  1  0.46891000  0.46344000  0.43278000  1
  O  O204  1  0.47328000  0.88816000  0.97488000  1
  O  O205  1  0.48993000  0.22210000  0.53004000  1
  O  O206  1  0.51007000  0.77790000  0.46996000  1
  O  O207  1  0.52672000  0.11184000  0.02512000  1
  O  O208  1  0.53109000  0.53656000  0.56722000  1
  O  O209  1  0.53995000  0.62776000  0.44232000  1
  O  O210  1  0.61003000  0.87224000  0.05768000  1
  O  O211  1  0.63487000  0.96344000  0.93278000  1
  O  O212  1  0.64143000  0.04525000  0.08699000  1
  O  O213  1  0.66368000  0.38816000  0.47488000  1
  O  O214  1  0.69417000  0.54860000  0.53806000  1
  O  O215  1  0.73610000  0.70803000  0.35077000  1
  O  O216  1  0.75793000  0.72210000  0.03004000  1
  O  O217  1  0.77367000  0.45475000  0.41301000  1
  O  O218  1  0.78083000  0.95140000  0.96194000  1
  O  O219  1  0.78650000  0.65345000  0.43235000  1
  O  O220  1  0.79490000  0.79197000  0.14923000  1
  O  O221  1  0.87230000  0.84655000  0.06765000  1
