# generated using pymatgen
data_MnMoH8(C7N3)2
_symmetry_space_group_name_H-M   'P 1'
_cell_length_a   7.37070000
_cell_length_b   14.42200000
_cell_length_c   17.23400000
_cell_angle_alpha   90.00000000
_cell_angle_beta   90.00000000
_cell_angle_gamma   91.64600000
_symmetry_Int_Tables_number   1
_chemical_formula_structural   MnMoH8(C7N3)2
_chemical_formula_sum   'Mn4 Mo4 H32 C56 N24'
_cell_volume   1831.22233860
_cell_formula_units_Z   4
loop_
 _symmetry_equiv_pos_site_id
 _symmetry_equiv_pos_as_xyz
  1  'x, y, z'
loop_
 _atom_site_type_symbol
 _atom_site_label
 _atom_site_symmetry_multiplicity
 _atom_site_fract_x
 _atom_site_fract_y
 _atom_site_fract_z
 _atom_site_occupancy
  Mn  Mn0  1  0.34197000  0.05461000  0.82970000  1
  Mn  Mn1  1  0.34197000  0.55461000  0.67030000  1
  Mn  Mn2  1  0.65803000  0.44539000  0.32970000  1
  Mn  Mn3  1  0.65803000  0.94539000  0.17030000  1
  Mo  Mo4  1  0.16746000  0.21583000  0.20773000  1
  Mo  Mo5  1  0.16746000  0.71583000  0.29227000  1
  Mo  Mo6  1  0.83254000  0.28417000  0.70773000  1
  Mo  Mo7  1  0.83254000  0.78417000  0.79227000  1
  H  H8  1  0.02840000  0.15750000  0.51150000  1
  H  H9  1  0.02840000  0.65750000  0.98850000  1
  H  H10  1  0.03970000  0.41710000  0.11040000  1
  H  H11  1  0.03970000  0.91710000  0.38960000  1
  H  H12  1  0.10270000  0.23710000  0.39830000  1
  H  H13  1  0.10270000  0.73710000  0.10170000  1
  H  H14  1  0.10710000  0.00320000  0.27940000  1
  H  H15  1  0.10710000  0.50320000  0.22060000  1
  H  H16  1  0.37090000  0.16150000  0.66990000  1
  H  H17  1  0.37090000  0.66150000  0.83010000  1
  H  H18  1  0.38060000  0.39050000  0.79910000  1
  H  H19  1  0.38060000  0.89050000  0.70090000  1
  H  H20  1  0.45450000  0.14740000  0.54110000  1
  H  H21  1  0.45450000  0.64740000  0.95890000  1
  H  H22  1  0.46130000  0.36760000  0.92750000  1
  H  H23  1  0.46130000  0.86760000  0.57250000  1
  H  H24  1  0.53870000  0.13240000  0.42750000  1
  H  H25  1  0.53870000  0.63240000  0.07250000  1
  H  H26  1  0.54550000  0.35260000  0.04110000  1
  H  H27  1  0.54550000  0.85260000  0.45890000  1
  H  H28  1  0.61940000  0.10950000  0.29910000  1
  H  H29  1  0.61940000  0.60950000  0.20090000  1
  H  H30  1  0.62910000  0.33850000  0.16990000  1
  H  H31  1  0.62910000  0.83850000  0.33010000  1
  H  H32  1  0.89290000  0.49680000  0.77940000  1
  H  H33  1  0.89290000  0.99680000  0.72060000  1
  H  H34  1  0.89730000  0.26290000  0.89830000  1
  H  H35  1  0.89730000  0.76290000  0.60170000  1
  H  H36  1  0.96030000  0.08290000  0.61040000  1
  H  H37  1  0.96030000  0.58290000  0.88960000  1
  H  H38  1  0.97160000  0.34250000  0.01150000  1
  H  H39  1  0.97160000  0.84250000  0.48850000  1
  C  C40  1  0.01560000  0.19080000  0.76525000  1
  C  C41  1  0.01560000  0.69080000  0.73475000  1
  C  C42  1  0.02350000  0.02680000  0.46405000  1
  C  C43  1  0.02350000  0.52680000  0.03595000  1
  C  C44  1  0.04430000  0.12407000  0.46457000  1
  C  C45  1  0.04430000  0.62407000  0.03543000  1
  C  C46  1  0.05000000  0.48283000  0.10705000  1
  C  C47  1  0.05000000  0.98283000  0.39295000  1
  C  C48  1  0.06000000  0.37226000  0.67275000  1
  C  C49  1  0.06000000  0.87226000  0.82725000  1
  C  C50  1  0.08810000  0.17149000  0.39636000  1
  C  C51  1  0.08810000  0.67149000  0.10364000  1
  C  C52  1  0.09150000  0.03493000  0.32710000  1
  C  C53  1  0.09150000  0.53493000  0.17290000  1
  C  C54  1  0.33090000  0.09767000  0.17952000  1
  C  C55  1  0.33090000  0.59767000  0.32048000  1
  C  C56  1  0.37280000  0.27831000  0.28358000  1
  C  C57  1  0.37280000  0.77831000  0.21642000  1
  C  C58  1  0.39250000  0.10132000  0.65013000  1
  C  C59  1  0.39250000  0.60132000  0.84987000  1
  C  C60  1  0.39760000  0.44314000  0.83172000  1
  C  C61  1  0.39760000  0.94314000  0.66828000  1
  C  C62  1  0.44160000  0.09356000  0.57266000  1
  C  C63  1  0.44160000  0.59356000  0.92734000  1
  C  C64  1  0.44590000  0.42879000  0.90867000  1
  C  C65  1  0.44590000  0.92879000  0.59133000  1
  C  C66  1  0.47210000  0.00560000  0.54128000  1
  C  C67  1  0.47210000  0.50560000  0.95872000  1
  C  C68  1  0.52790000  0.49440000  0.04128000  1
  C  C69  1  0.52790000  0.99440000  0.45872000  1
  C  C70  1  0.55410000  0.07121000  0.40867000  1
  C  C71  1  0.55410000  0.57121000  0.09133000  1
  C  C72  1  0.55840000  0.40644000  0.07266000  1
  C  C73  1  0.55840000  0.90644000  0.42734000  1
  C  C74  1  0.60240000  0.05686000  0.33172000  1
  C  C75  1  0.60240000  0.55686000  0.16828000  1
  C  C76  1  0.60750000  0.39868000  0.15013000  1
  C  C77  1  0.60750000  0.89868000  0.34987000  1
  C  C78  1  0.62720000  0.22169000  0.78358000  1
  C  C79  1  0.62720000  0.72169000  0.71642000  1
  C  C80  1  0.66910000  0.40233000  0.67952000  1
  C  C81  1  0.66910000  0.90233000  0.82048000  1
  C  C82  1  0.90850000  0.46507000  0.82710000  1
  C  C83  1  0.90850000  0.96507000  0.67290000  1
  C  C84  1  0.91190000  0.32851000  0.89636000  1
  C  C85  1  0.91190000  0.82851000  0.60364000  1
  C  C86  1  0.94000000  0.12774000  0.17275000  1
  C  C87  1  0.94000000  0.62774000  0.32725000  1
  C  C88  1  0.95000000  0.01717000  0.60705000  1
  C  C89  1  0.95000000  0.51717000  0.89295000  1
  C  C90  1  0.95570000  0.37593000  0.96457000  1
  C  C91  1  0.95570000  0.87593000  0.53543000  1
  C  C92  1  0.97650000  0.47320000  0.96405000  1
  C  C93  1  0.97650000  0.97320000  0.53595000  1
  C  C94  1  0.98440000  0.30920000  0.26525000  1
  C  C95  1  0.98440000  0.80920000  0.23475000  1
  N  N96  1  0.10880000  0.13934000  0.79615000  1
  N  N97  1  0.10880000  0.63934000  0.70385000  1
  N  N98  1  0.11090000  0.12844000  0.32749000  1
  N  N99  1  0.11090000  0.62844000  0.17251000  1
  N  N100  1  0.17580000  0.42506000  0.65727000  1
  N  N101  1  0.17580000  0.92506000  0.84273000  1
  N  N102  1  0.37360000  0.02857000  0.69913000  1
  N  N103  1  0.37360000  0.52857000  0.80087000  1
  N  N104  1  0.41400000  0.03472000  0.15899000  1
  N  N105  1  0.41400000  0.53472000  0.34101000  1
  N  N106  1  0.47620000  0.32029000  0.32147000  1
  N  N107  1  0.47620000  0.82029000  0.17853000  1
  N  N108  1  0.52380000  0.17971000  0.82147000  1
  N  N109  1  0.52380000  0.67971000  0.67853000  1
  N  N110  1  0.58600000  0.46528000  0.65899000  1
  N  N111  1  0.58600000  0.96528000  0.84101000  1
  N  N112  1  0.62640000  0.47143000  0.19913000  1
  N  N113  1  0.62640000  0.97143000  0.30087000  1
  N  N114  1  0.82420000  0.07494000  0.15727000  1
  N  N115  1  0.82420000  0.57494000  0.34273000  1
  N  N116  1  0.88910000  0.37156000  0.82749000  1
  N  N117  1  0.88910000  0.87156000  0.67251000  1
  N  N118  1  0.89120000  0.36066000  0.29615000  1
  N  N119  1  0.89120000  0.86066000  0.20385000  1
