# generated using pymatgen
data_GdH3(C3O2)3
_symmetry_space_group_name_H-M   'P 1'
_cell_length_a   10.47100000
_cell_length_b   10.47100000
_cell_length_c   14.64500000
_cell_angle_alpha   90.00000000
_cell_angle_beta   90.00000000
_cell_angle_gamma   90.00000000
_symmetry_Int_Tables_number   1
_chemical_formula_structural   GdH3(C3O2)3
_chemical_formula_sum   'Gd4 H12 C36 O24'
_cell_volume   1605.70476145
_cell_formula_units_Z   4
loop_
 _symmetry_equiv_pos_site_id
 _symmetry_equiv_pos_as_xyz
  1  'x, y, z'
loop_
 _atom_site_type_symbol
 _atom_site_label
 _atom_site_symmetry_multiplicity
 _atom_site_fract_x
 _atom_site_fract_y
 _atom_site_fract_z
 _atom_site_occupancy
  Gd  Gd0  1  0.14273000  0.14273000  0.62500000  1
  Gd  Gd1  1  0.14273000  0.85727000  0.87500000  1
  Gd  Gd2  1  0.85727000  0.14273000  0.37500000  1
  Gd  Gd3  1  0.85727000  0.85727000  0.12500000  1
  H  H4  1  0.00000000  0.10950000  0.00000000  1
  H  H5  1  0.00000000  0.89050000  0.50000000  1
  H  H6  1  0.06430000  0.44400000  0.86920000  1
  H  H7  1  0.06430000  0.55600000  0.63080000  1
  H  H8  1  0.10950000  0.00000000  0.25000000  1
  H  H9  1  0.44400000  0.06430000  0.38080000  1
  H  H10  1  0.44400000  0.93570000  0.11920000  1
  H  H11  1  0.55600000  0.06430000  0.61920000  1
  H  H12  1  0.55600000  0.93570000  0.88080000  1
  H  H13  1  0.89050000  0.00000000  0.75000000  1
  H  H14  1  0.93570000  0.44400000  0.13080000  1
  H  H15  1  0.93570000  0.55600000  0.36920000  1
  C  C16  1  0.00000000  0.19830000  0.00000000  1
  C  C17  1  0.00000000  0.38730000  0.50000000  1
  C  C18  1  0.00000000  0.46690000  0.00000000  1
  C  C19  1  0.00000000  0.53310000  0.50000000  1
  C  C20  1  0.00000000  0.61270000  0.00000000  1
  C  C21  1  0.00000000  0.80170000  0.50000000  1
  C  C22  1  0.03760000  0.26490000  0.92060000  1
  C  C23  1  0.03760000  0.73510000  0.57940000  1
  C  C24  1  0.03840000  0.39950000  0.92090000  1
  C  C25  1  0.03840000  0.60050000  0.57910000  1
  C  C26  1  0.07550000  0.18970000  0.83670000  1
  C  C27  1  0.07550000  0.81030000  0.66330000  1
  C  C28  1  0.18970000  0.07550000  0.41330000  1
  C  C29  1  0.18970000  0.92450000  0.08670000  1
  C  C30  1  0.19830000  0.00000000  0.25000000  1
  C  C31  1  0.26490000  0.03760000  0.32940000  1
  C  C32  1  0.26490000  0.96240000  0.17060000  1
  C  C33  1  0.38730000  0.00000000  0.75000000  1
  C  C34  1  0.39950000  0.03840000  0.32910000  1
  C  C35  1  0.39950000  0.96160000  0.17090000  1
  C  C36  1  0.46690000  0.00000000  0.25000000  1
  C  C37  1  0.53310000  0.00000000  0.75000000  1
  C  C38  1  0.60050000  0.03840000  0.67090000  1
  C  C39  1  0.60050000  0.96160000  0.82910000  1
  C  C40  1  0.61270000  0.00000000  0.25000000  1
  C  C41  1  0.73510000  0.03760000  0.67060000  1
  C  C42  1  0.73510000  0.96240000  0.82940000  1
  C  C43  1  0.80170000  0.00000000  0.75000000  1
  C  C44  1  0.81030000  0.07550000  0.58670000  1
  C  C45  1  0.81030000  0.92450000  0.91330000  1
  C  C46  1  0.92450000  0.18970000  0.16330000  1
  C  C47  1  0.92450000  0.81030000  0.33670000  1
  C  C48  1  0.96160000  0.39950000  0.07910000  1
  C  C49  1  0.96160000  0.60050000  0.42090000  1
  C  C50  1  0.96240000  0.26490000  0.07940000  1
  C  C51  1  0.96240000  0.73510000  0.42060000  1
  O  O52  1  0.06860000  0.33180000  0.55920000  1
  O  O53  1  0.06860000  0.66820000  0.94080000  1
  O  O54  1  0.07570000  0.24750000  0.76070000  1
  O  O55  1  0.07570000  0.75250000  0.73930000  1
  O  O56  1  0.07620000  0.10280000  0.40700000  1
  O  O57  1  0.07620000  0.89720000  0.09300000  1
  O  O58  1  0.10280000  0.07620000  0.84300000  1
  O  O59  1  0.10280000  0.92380000  0.65700000  1
  O  O60  1  0.24750000  0.07570000  0.48930000  1
  O  O61  1  0.24750000  0.92430000  0.01070000  1
  O  O62  1  0.33180000  0.06860000  0.69080000  1
  O  O63  1  0.33180000  0.93140000  0.80920000  1
  O  O64  1  0.66820000  0.06860000  0.30920000  1
  O  O65  1  0.66820000  0.93140000  0.19080000  1
  O  O66  1  0.75250000  0.07570000  0.51070000  1
  O  O67  1  0.75250000  0.92430000  0.98930000  1
  O  O68  1  0.89720000  0.07620000  0.15700000  1
  O  O69  1  0.89720000  0.92380000  0.34300000  1
  O  O70  1  0.92380000  0.10280000  0.59300000  1
  O  O71  1  0.92380000  0.89720000  0.90700000  1
  O  O72  1  0.92430000  0.24750000  0.23930000  1
  O  O73  1  0.92430000  0.75250000  0.26070000  1
  O  O74  1  0.93140000  0.33180000  0.44080000  1
  O  O75  1  0.93140000  0.66820000  0.05920000  1
