# generated using pymatgen
data_CeCu4H24C36I4(NO2)3
_symmetry_space_group_name_H-M   'P 1'
_cell_length_a   9.75800000
_cell_length_b   16.57500000
_cell_length_c   21.45200000
_cell_angle_alpha   104.13000000
_cell_angle_beta   100.68000000
_cell_angle_gamma   96.53000000
_symmetry_Int_Tables_number   1
_chemical_formula_structural   CeCu4H24C36I4(NO2)3
_chemical_formula_sum   'Ce2 Cu8 H48 C72 I8 N6 O12'
_cell_volume   3260.03440868
_cell_formula_units_Z   2
loop_
 _symmetry_equiv_pos_site_id
 _symmetry_equiv_pos_as_xyz
  1  'x, y, z'
loop_
 _atom_site_type_symbol
 _atom_site_label
 _atom_site_symmetry_multiplicity
 _atom_site_fract_x
 _atom_site_fract_y
 _atom_site_fract_z
 _atom_site_occupancy
  Ce  Ce0  1  0.27720000  0.51746000  0.99827000  1
  Ce  Ce1  1  0.72280000  0.48254000  0.00173000  1
  Cu  Cu2  1  0.01258000  0.94228000  0.53908000  1
  Cu  Cu3  1  0.03695000  0.18315000  0.40287000  1
  Cu  Cu4  1  0.17983000  0.05489000  0.37922000  1
  Cu  Cu5  1  0.24612000  0.17305000  0.49777000  1
  Cu  Cu6  1  0.75388000  0.82695000  0.50223000  1
  Cu  Cu7  1  0.82017000  0.94511000  0.62078000  1
  Cu  Cu8  1  0.96305000  0.81685000  0.59713000  1
  Cu  Cu9  1  0.98742000  0.05772000  0.46092000  1
  H  H10  1  0.03080000  0.32020000  0.32790000  1
  H  H11  1  0.06910000  0.62590000  0.36340000  1
  H  H12  1  0.11790000  0.23760000  0.69800000  1
  H  H13  1  0.12980000  0.45650000  0.70880000  1
  H  H14  1  0.12990000  0.62830000  0.73250000  1
  H  H15  1  0.13450000  0.50050000  0.81940000  1
  H  H16  1  0.14210000  0.88010000  0.27930000  1
  H  H17  1  0.17930000  0.32630000  0.80290000  1
  H  H18  1  0.24240000  0.75800000  0.40310000  1
  H  H19  1  0.26650000  0.80540000  0.61390000  1
  H  H20  1  0.27050000  0.14960000  0.66050000  1
  H  H21  1  0.27160000  0.60890000  0.21540000  1
  H  H22  1  0.27590000  0.79140000  0.23640000  1
  H  H23  1  0.29180000  0.42970000  0.26180000  1
  H  H24  1  0.31050000  0.63480000  0.81800000  1
  H  H25  1  0.31150000  0.44120000  0.15470000  1
  H  H26  1  0.33420000  0.31860000  0.61930000  1
  H  H27  1  0.37590000  0.03870000  0.65560000  1
  H  H28  1  0.43170000  0.74050000  0.66530000  1
  H  H29  1  0.43750000  0.73900000  0.17110000  1
  H  H30  1  0.44940000  0.83470000  0.47030000  1
  H  H31  1  0.45870000  0.37380000  0.32150000  1
  H  H32  1  0.46750000  0.60110000  0.30790000  1
  H  H33  1  0.47160000  0.04680000  0.37860000  1
  H  H34  1  0.52840000  0.95320000  0.62140000  1
  H  H35  1  0.53250000  0.39890000  0.69210000  1
  H  H36  1  0.54130000  0.62620000  0.67850000  1
  H  H37  1  0.55060000  0.16530000  0.52970000  1
  H  H38  1  0.56250000  0.26100000  0.82890000  1
  H  H39  1  0.56830000  0.25950000  0.33470000  1
  H  H40  1  0.62410000  0.96130000  0.34440000  1
  H  H41  1  0.66580000  0.68140000  0.38070000  1
  H  H42  1  0.68850000  0.55880000  0.84530000  1
  H  H43  1  0.68950000  0.36520000  0.18200000  1
  H  H44  1  0.70820000  0.57030000  0.73820000  1
  H  H45  1  0.72410000  0.20860000  0.76360000  1
  H  H46  1  0.72840000  0.39110000  0.78460000  1
  H  H47  1  0.72950000  0.85040000  0.33950000  1
  H  H48  1  0.73350000  0.19460000  0.38610000  1
  H  H49  1  0.75760000  0.24200000  0.59690000  1
  H  H50  1  0.82070000  0.67370000  0.19710000  1
  H  H51  1  0.85790000  0.11990000  0.72070000  1
  H  H52  1  0.86550000  0.49950000  0.18060000  1
  H  H53  1  0.87010000  0.37170000  0.26750000  1
  H  H54  1  0.87020000  0.54350000  0.29120000  1
  H  H55  1  0.88210000  0.76240000  0.30200000  1
  H  H56  1  0.93090000  0.37410000  0.63660000  1
  H  H57  1  0.96920000  0.67980000  0.67210000  1
  C  C58  1  0.05010000  0.44220000  0.72430000  1
  C  C59  1  0.05310000  0.46820000  0.79020000  1
  C  C60  1  0.06050000  0.52740000  0.11420000  1
  C  C61  1  0.06410000  0.69520000  0.67250000  1
  C  C62  1  0.06740000  0.55380000  0.18630000  1
  C  C63  1  0.07060000  0.60530000  0.31920000  1
  C  C64  1  0.15960000  0.66240000  0.70730000  1
  C  C65  1  0.19080000  0.59710000  0.23080000  1
  C  C66  1  0.19640000  0.62320000  0.29800000  1
  C  C67  1  0.20570000  0.23990000  0.72470000  1
  C  C68  1  0.23820000  0.76770000  0.63660000  1
  C  C69  1  0.23990000  0.89620000  0.29130000  1
  C  C70  1  0.24410000  0.29430000  0.78700000  1
  C  C71  1  0.29820000  0.18830000  0.70180000  1
  C  C72  1  0.30090000  0.67770000  0.70690000  1
  C  C73  1  0.31940000  0.84270000  0.26630000  1
  C  C74  1  0.32790000  0.74170000  0.39650000  1
  C  C75  1  0.32890000  0.67210000  0.34440000  1
  C  C76  1  0.33820000  0.73030000  0.66890000  1
  C  C77  1  0.36920000  0.41410000  0.24510000  1
  C  C78  1  0.37720000  0.30250000  0.82650000  1
  C  C79  1  0.38310000  0.42420000  0.18110000  1
  C  C80  1  0.39180000  0.62390000  0.80290000  1
  C  C81  1  0.41030000  0.63930000  0.74340000  1
  C  C82  1  0.41760000  0.36380000  0.89300000  1
  C  C83  1  0.42140000  0.30340000  0.61460000  1
  C  C84  1  0.43330000  0.19440000  0.74060000  1
  C  C85  1  0.43360000  0.99360000  0.35030000  1
  C  C86  1  0.45280000  0.78620000  0.43830000  1
  C  C87  1  0.45990000  0.64830000  0.34020000  1
  C  C88  1  0.46830000  0.86140000  0.28370000  1
  C  C89  1  0.46950000  0.38180000  0.28120000  1
  C  C90  1  0.47180000  0.25430000  0.80320000  1
  C  C91  1  0.47240000  0.57500000  0.90320000  1
  C  C92  1  0.47300000  0.05640000  0.67030000  1
  C  C93  1  0.49530000  0.59210000  0.83960000  1
  C  C94  1  0.50470000  0.40790000  0.16040000  1
  C  C95  1  0.52700000  0.94360000  0.32970000  1
  C  C96  1  0.52760000  0.42500000  0.09680000  1
  C  C97  1  0.52820000  0.74570000  0.19680000  1
  C  C98  1  0.53050000  0.61820000  0.71880000  1
  C  C99  1  0.53170000  0.13860000  0.71630000  1
  C  C100  1  0.54010000  0.35170000  0.65980000  1
  C  C101  1  0.54720000  0.21380000  0.56170000  1
  C  C102  1  0.56640000  0.00640000  0.64970000  1
  C  C103  1  0.56670000  0.80560000  0.25940000  1
  C  C104  1  0.57860000  0.69660000  0.38540000  1
  C  C105  1  0.58240000  0.63620000  0.10700000  1
  C  C106  1  0.58970000  0.36070000  0.25660000  1
  C  C107  1  0.60820000  0.37610000  0.19710000  1
  C  C108  1  0.61690000  0.57580000  0.81890000  1
  C  C109  1  0.62280000  0.69750000  0.17350000  1
  C  C110  1  0.63080000  0.58590000  0.75490000  1
  C  C111  1  0.66180000  0.26970000  0.33110000  1
  C  C112  1  0.67110000  0.32790000  0.65560000  1
  C  C113  1  0.67210000  0.25830000  0.60350000  1
  C  C114  1  0.68060000  0.15730000  0.73370000  1
  C  C115  1  0.69910000  0.32230000  0.29310000  1
  C  C116  1  0.70180000  0.81170000  0.29820000  1
  C  C117  1  0.75590000  0.70570000  0.21300000  1
  C  C118  1  0.76010000  0.10380000  0.70870000  1
  C  C119  1  0.76180000  0.23230000  0.36340000  1
  C  C120  1  0.79430000  0.76010000  0.27530000  1
  C  C121  1  0.80360000  0.37680000  0.70200000  1
  C  C122  1  0.80920000  0.40290000  0.76920000  1
  C  C123  1  0.84040000  0.33760000  0.29270000  1
  C  C124  1  0.92940000  0.39470000  0.68080000  1
  C  C125  1  0.93260000  0.44620000  0.81370000  1
  C  C126  1  0.93590000  0.30480000  0.32750000  1
  C  C127  1  0.93950000  0.47260000  0.88580000  1
  C  C128  1  0.94690000  0.53180000  0.20980000  1
  C  C129  1  0.94990000  0.55780000  0.27570000  1
  I  I130  1  0.01507000  0.22152000  0.53043000  1
  I  I131  1  0.08712000  0.97835000  0.67145000  1
  I  I132  1  0.23627000  0.00836000  0.49975000  1
  I  I133  1  0.29906000  0.21231000  0.38780000  1
  I  I134  1  0.70094000  0.78769000  0.61220000  1
  I  I135  1  0.76373000  0.99164000  0.50025000  1
  I  I136  1  0.91288000  0.02165000  0.32855000  1
  I  I137  1  0.98493000  0.77848000  0.46957000  1
  N  N138  1  0.09790000  0.74990000  0.63750000  1
  N  N139  1  0.29440000  0.97390000  0.33390000  1
  N  N140  1  0.42180000  0.23690000  0.56510000  1
  N  N141  1  0.57820000  0.76310000  0.43490000  1
  N  N142  1  0.70560000  0.02610000  0.66610000  1
  N  N143  1  0.90210000  0.25010000  0.36250000  1
  O  O144  1  0.05410000  0.51080000  0.92490000  1
  O  O145  1  0.17320000  0.54930000  0.09430000  1
  O  O146  1  0.32430000  0.40520000  0.91200000  1
  O  O147  1  0.35500000  0.58710000  0.91880000  1
  O  O148  1  0.43120000  0.45010000  0.06280000  1
  O  O149  1  0.45620000  0.62970000  0.07360000  1
  O  O150  1  0.54380000  0.37030000  0.92640000  1
  O  O151  1  0.56880000  0.54990000  0.93720000  1
  O  O152  1  0.64500000  0.41290000  0.08120000  1
  O  O153  1  0.67570000  0.59480000  0.08800000  1
  O  O154  1  0.82680000  0.45070000  0.90570000  1
  O  O155  1  0.94590000  0.48920000  0.07510000  1
