# generated using pymatgen
data_Mn3H36C41N8O9
_symmetry_space_group_name_H-M   'P 1'
_cell_length_a   17.56420000
_cell_length_b   30.05410000
_cell_length_c   30.05409849
_cell_angle_alpha   85.10169386
_cell_angle_beta   73.00970942
_cell_angle_gamma   73.00970000
_symmetry_Int_Tables_number   1
_chemical_formula_structural   Mn3H36C41N8O9
_chemical_formula_sum   'Mn24 H288 C328 N64 O72'
_cell_volume   14510.20015346
_cell_formula_units_Z   8
loop_
 _symmetry_equiv_pos_site_id
 _symmetry_equiv_pos_as_xyz
  1  'x, y, z'
loop_
 _atom_site_type_symbol
 _atom_site_label
 _atom_site_symmetry_multiplicity
 _atom_site_fract_x
 _atom_site_fract_y
 _atom_site_fract_z
 _atom_site_occupancy
  Mn  Mn0  1  0.08263000  0.85701000  0.91465000  1
  Mn  Mn1  1  0.56036000  0.08535000  0.35701000  1
  Mn  Mn2  1  0.87857000  0.37892000  0.02962000  1
  Mn  Mn3  1  0.75749000  0.02962000  0.12108000  1
  Mn  Mn4  1  0.99728000  0.58535000  0.85701000  1
  Mn  Mn5  1  0.21677000  0.99731000  0.57636000  1
  Mn  Mn6  1  0.79312000  0.92364000  0.99732000  1
  Mn  Mn7  1  0.28592000  0.42364000  0.49732000  1
  Mn  Mn8  1  0.28711000  0.12108000  0.47038000  1
  Mn  Mn9  1  0.79043000  0.50269000  0.92364000  1
  Mn  Mn10  1  0.09181000  0.52962000  0.62108000  1
  Mn  Mn11  1  0.14571000  0.35701000  0.41465000  1
  Mn  Mn12  1  0.85429000  0.64299000  0.58535000  1
  Mn  Mn13  1  0.90819000  0.47038000  0.37892000  1
  Mn  Mn14  1  0.20957000  0.49731000  0.07636000  1
  Mn  Mn15  1  0.71289000  0.87892000  0.52962000  1
  Mn  Mn16  1  0.71408000  0.57636000  0.50268000  1
  Mn  Mn17  1  0.20688000  0.07636000  0.00268000  1
  Mn  Mn18  1  0.78323000  0.00269000  0.42364000  1
  Mn  Mn19  1  0.00272000  0.41465000  0.14299000  1
  Mn  Mn20  1  0.24251000  0.97038000  0.87892000  1
  Mn  Mn21  1  0.12143000  0.62108000  0.97038000  1
  Mn  Mn22  1  0.43964000  0.91465000  0.64299000  1
  Mn  Mn23  1  0.91737000  0.14299000  0.08535000  1
  H  H24  1  0.53900000  0.12950000  0.45830000  1
  H  H25  1  0.57040000  0.76820000  0.42600000  1
  H  H26  1  0.57520000  0.88910000  0.41770000  1
  H  H27  1  0.12910000  0.39450000  0.86290000  1
  H  H28  1  0.33310000  0.55350000  0.65850000  1
  H  H29  1  0.74000000  0.09530000  0.24730000  1
  H  H30  1  0.90880000  0.87530000  0.07790000  1
  H  H31  1  0.41320000  0.30990000  0.57330000  1
  H  H32  1  0.03090000  0.09640000  0.95380000  1
  H  H33  1  0.66310000  0.37570000  0.32110000  1
  H  H34  1  0.08770000  0.35610000  0.89170000  1
  H  H35  1  0.47650000  0.90870000  0.50230000  1
  H  H36  1  0.22780000  0.98740000  0.75080000  1
  H  H37  1  0.61350000  0.89450000  0.36290000  1
  H  H38  1  0.81130000  0.42220000  0.16240000  1
  H  H39  1  0.37270000  0.04620000  0.59640000  1
  H  H40  1  0.97860000  0.74920000  0.98740000  1
  H  H41  1  0.88200000  0.61090000  0.08230000  1
  H  H42  1  0.89810000  0.52470000  0.05410000  1
  H  H43  1  0.25850000  0.86160000  0.69260000  1
  H  H44  1  0.42220000  0.59820000  0.52740000  1
  H  H45  1  0.33550000  0.14390000  0.60830000  1
  H  H46  1  0.90460000  0.69960000  0.03140000  1
  H  H47  1  0.84810000  0.25330000  0.08710000  1
  H  H48  1  0.45690000  0.84680000  0.46960000  1
  H  H49  1  0.55580000  0.34130000  0.37070000  1
  H  H50  1  0.47690000  0.97530000  0.44590000  1
  H  H51  1  0.61670000  0.46960000  0.30480000  1
  H  H52  1  0.01530000  0.45380000  0.90360000  1
  H  H53  1  0.01270000  0.74730000  0.90470000  1
  H  H54  1  0.05620000  0.10830000  0.85610000  1
  H  H55  1  0.68880000  0.43240000  0.22020000  1
  H  H56  1  0.28410000  0.07790000  0.62470000  1
  H  H57  1  0.39150000  0.52890000  0.51690000  1
  H  H58  1  0.10420000  0.03140000  0.80040000  1
  H  H59  1  0.59930000  0.21710000  0.30050000  1
  H  H60  1  0.92280000  0.05410000  0.97530000  1
  H  H61  1  0.86490000  0.49020000  0.03140000  1
  H  H62  1  0.36440000  0.19960000  0.53140000  1
  H  H63  1  0.60260000  0.40260000  0.29100000  1
  H  H64  1  0.31780000  0.65780000  0.57380000  1
  H  H65  1  0.97880000  0.99770000  0.90870000  1
  H  H66  1  0.17850000  0.81010000  0.70770000  1
  H  H67  1  0.88750000  0.59130000  0.99770000  1
  H  H68  1  0.10020000  0.80050000  0.78290000  1
  H  H69  1  0.99290000  0.08230000  0.88910000  1
  H  H70  1  0.36970000  0.85160000  0.50780000  1
  H  H71  1  0.00270000  0.95830000  0.87050000  1
  H  H72  1  0.97640000  0.13710000  0.89450000  1
  H  H73  1  0.18490000  0.57700000  0.68580000  1
  H  H74  1  0.43800000  0.35060000  0.43220000  1
  H  H75  1  0.85510000  0.03140000  0.00980000  1
  H  H76  1  0.98670000  0.42210000  0.87530000  1
  H  H77  1  0.49890000  0.48220000  0.36280000  1
  H  H78  1  0.38650000  0.00980000  0.46860000  1
  H  H79  1  0.38020000  0.89150000  0.46950000  1
  H  H80  1  0.60140000  0.08710000  0.24670000  1
  H  H81  1  0.76460000  0.73180000  0.07400000  1
  H  H82  1  0.87320000  0.62950000  0.95830000  1
  H  H83  1  0.51140000  0.29230000  0.31010000  1
  H  H84  1  0.38790000  0.48550000  0.43030000  1
  H  H85  1  0.73810000  0.31420000  0.07700000  1
  H  H86  1  0.95110000  0.80740000  0.86160000  1
  H  H87  1  0.06480000  0.58710000  0.74670000  1
  H  H88  1  0.73350000  0.16240000  0.07780000  1
  H  H89  1  0.66100000  0.38640000  0.14700000  1
  H  H90  1  0.19200000  0.64700000  0.61360000  1
  H  H91  1  0.77330000  0.65320000  0.03040000  1
  H  H92  1  0.12980000  0.93220000  0.64940000  1
  H  H93  1  0.70360000  0.80990000  0.07330000  1
  H  H94  1  0.92650000  0.03040000  0.84680000  1
  H  H95  1  0.28480000  0.24920000  0.48740000  1
  H  H96  1  0.74120000  0.60850000  0.03050000  1
  H  H97  1  0.99640000  0.07400000  0.76820000  1
  H  H98  1  0.37990000  0.30740000  0.36160000  1
  H  H99  1  0.84970000  0.03050000  0.89150000  1
  H  H100  1  0.33530000  0.24730000  0.40470000  1
  H  H101  1  0.55230000  0.07700000  0.18580000  1
  H  H102  1  0.39590000  0.07780000  0.33760000  1
  H  H103  1  0.07350000  0.87070000  0.65870000  1
  H  H104  1  0.87750000  0.99220000  0.85160000  1
  H  H105  1  0.72910000  0.64840000  0.99220000  1
  H  H106  1  0.13800000  0.37530000  0.57790000  1
  H  H107  1  0.96600000  0.51260000  0.74920000  1
  H  H108  1  0.77920000  0.85060000  0.93220000  1
  H  H109  1  0.10640000  0.79100000  0.59740000  1
  H  H110  1  0.01350000  0.07330000  0.69010000  1
  H  H111  1  0.18180000  0.93030000  0.51450000  1
  H  H112  1  0.88620000  0.79230000  0.81010000  1
  H  H113  1  0.62120000  0.22020000  0.06760000  1
  H  H114  1  0.88310000  0.71710000  0.80050000  1
  H  H115  1  0.52440000  0.42620000  0.15780000  1
  H  H116  1  0.61340000  0.34150000  0.05350000  1
  H  H117  1  0.91740000  0.59530000  0.74730000  1
  H  H118  1  0.02060000  0.39170000  0.64390000  1
  H  H119  1  0.53880000  0.32110000  0.12430000  1
  H  H120  1  0.54740000  0.14700000  0.11360000  1
  H  H121  1  0.09100000  0.72020000  0.56760000  1
  H  H122  1  0.13830000  0.86280000  0.51780000  1
  H  H123  1  0.01580000  0.82110000  0.62430000  1
  H  H124  1  0.93600000  0.46860000  0.69960000  1
  H  H125  1  0.27870000  0.49220000  0.35160000  1
  H  H126  1  0.08110000  0.40360000  0.54620000  1
  H  H127  1  0.69630000  0.98550000  0.93030000  1
  H  H128  1  0.34140000  0.06760000  0.27980000  1
  H  H129  1  0.81270000  0.63840000  0.80740000  1
  H  H130  1  0.22830000  0.53050000  0.39150000  1
  H  H131  1  0.58630000  0.30480000  0.03040000  1
  H  H132  1  0.10370000  0.53140000  0.50980000  1
  H  H133  1  0.00800000  0.36290000  0.60550000  1
  H  H134  1  0.45490000  0.05350000  0.15850000  1
  H  H135  1  0.62660000  0.56970000  0.98550000  1
  H  H136  1  0.07850000  0.80480000  0.53040000  1
  H  H137  1  0.57960000  0.48310000  0.02890000  1
  H  H138  1  0.02630000  0.66240000  0.57780000  1
  H  H139  1  0.73220000  0.84130000  0.87070000  1
  H  H140  1  0.50520000  0.29100000  0.09740000  1
  H  H141  1  0.18850000  0.24670000  0.41290000  1
  H  H142  1  0.31640000  0.30050000  0.28290000  1
  H  H143  1  0.77690000  0.42670000  0.80990000  1
  H  H144  1  0.39110000  0.03040000  0.19520000  1
  H  H145  1  0.56270000  0.02890000  0.01690000  1
  H  H146  1  0.47960000  0.47260000  0.09820000  1
  H  H147  1  0.96430000  0.41770000  0.61090000  1
  H  H148  1  0.83860000  0.42600000  0.73180000  1
  H  H149  1  0.09160000  0.01690000  0.47110000  1
  H  H150  1  0.71140000  0.56780000  0.85060000  1
  H  H151  1  0.39710000  0.37070000  0.15870000  1
  H  H152  1  0.12930000  0.18580000  0.42300000  1
  H  H153  1  0.89160000  0.92620000  0.65780000  1
  H  H154  1  0.94960000  0.97260000  0.59820000  1
  H  H155  1  0.19440000  0.11360000  0.35300000  1
  H  H156  1  0.99160000  0.84150000  0.55350000  1
  H  H157  1  0.19630000  0.53040000  0.34680000  1
  H  H158  1  0.16850000  0.45830000  0.37050000  1
  H  H159  1  0.35990000  0.12430000  0.17890000  1
  H  H160  1  0.45060000  0.15780000  0.07380000  1
  H  H161  1  0.11480000  0.49770000  0.40870000  1
  H  H162  1  0.04780000  0.55410000  0.47530000  1
  H  H163  1  0.54780000  0.90180000  0.97260000  1
  H  H164  1  0.65610000  0.98220000  0.86280000  1
  H  H165  1  0.30370000  0.31010000  0.20770000  1
  H  H166  1  0.29620000  0.09740000  0.20900000  1
  H  H167  1  0.51890000  0.63720000  0.98220000  1
  H  H168  1  0.48110000  0.36280000  0.01780000  1
  H  H169  1  0.70380000  0.90260000  0.79100000  1
  H  H170  1  0.69630000  0.68990000  0.79230000  1
  H  H171  1  0.34390000  0.01780000  0.13720000  1
  H  H172  1  0.45220000  0.09820000  0.02740000  1
  H  H173  1  0.95220000  0.44590000  0.52470000  1
  H  H174  1  0.88520000  0.50230000  0.59130000  1
  H  H175  1  0.54940000  0.84220000  0.92620000  1
  H  H176  1  0.64010000  0.87570000  0.82110000  1
  H  H177  1  0.83150000  0.54170000  0.62950000  1
  H  H178  1  0.80370000  0.46960000  0.65320000  1
  H  H179  1  0.00840000  0.15850000  0.44650000  1
  H  H180  1  0.80560000  0.88640000  0.64700000  1
  H  H181  1  0.05040000  0.02740000  0.40180000  1
  H  H182  1  0.10840000  0.07380000  0.34220000  1
  H  H183  1  0.87070000  0.81420000  0.57700000  1
  H  H184  1  0.60290000  0.62930000  0.84130000  1
  H  H185  1  0.28860000  0.43220000  0.14940000  1
  H  H186  1  0.90840000  0.98310000  0.52890000  1
  H  H187  1  0.16140000  0.57400000  0.26820000  1
  H  H188  1  0.03570000  0.58230000  0.38910000  1
  H  H189  1  0.52040000  0.52740000  0.90180000  1
  H  H190  1  0.43730000  0.97110000  0.98310000  1
  H  H191  1  0.60890000  0.96960000  0.80480000  1
  H  H192  1  0.22310000  0.57330000  0.19010000  1
  H  H193  1  0.68360000  0.69950000  0.71710000  1
  H  H194  1  0.81150000  0.75330000  0.58710000  1
  H  H195  1  0.49480000  0.70900000  0.90260000  1
  H  H196  1  0.26780000  0.15870000  0.12930000  1
  H  H197  1  0.97370000  0.33760000  0.42220000  1
  H  H198  1  0.42040000  0.51690000  0.97110000  1
  H  H199  1  0.92150000  0.19520000  0.46960000  1
  H  H200  1  0.37340000  0.43030000  0.01450000  1
  H  H201  1  0.54510000  0.94650000  0.84150000  1
  H  H202  1  0.99200000  0.63710000  0.39450000  1
  H  H203  1  0.89630000  0.46860000  0.49020000  1
  H  H204  1  0.41370000  0.69520000  0.96960000  1
  H  H205  1  0.77170000  0.46950000  0.60850000  1
  H  H206  1  0.18730000  0.36160000  0.19260000  1
  H  H207  1  0.65860000  0.93240000  0.72020000  1
  H  H208  1  0.30370000  0.01450000  0.06970000  1
  H  H209  1  0.91890000  0.59640000  0.45380000  1
  H  H210  1  0.72130000  0.50780000  0.64840000  1
  H  H211  1  0.06400000  0.53140000  0.30040000  1
  H  H212  1  0.98420000  0.17890000  0.37570000  1
  H  H213  1  0.86170000  0.13720000  0.48220000  1
  H  H214  1  0.90900000  0.27980000  0.43240000  1
  H  H215  1  0.45260000  0.85300000  0.88640000  1
  H  H216  1  0.46120000  0.67890000  0.87570000  1
  H  H217  1  0.97940000  0.60830000  0.35610000  1
  H  H218  1  0.08260000  0.40470000  0.25270000  1
  H  H219  1  0.38660000  0.65850000  0.94650000  1
  H  H220  1  0.47560000  0.57380000  0.84220000  1
  H  H221  1  0.11690000  0.28290000  0.19950000  1
  H  H222  1  0.37880000  0.77980000  0.93240000  1
  H  H223  1  0.11380000  0.20770000  0.18990000  1
  H  H224  1  0.81820000  0.06970000  0.48550000  1
  H  H225  1  0.98650000  0.92670000  0.30990000  1
  H  H226  1  0.89360000  0.20900000  0.40260000  1
  H  H227  1  0.22080000  0.14940000  0.06780000  1
  H  H228  1  0.03400000  0.48740000  0.25080000  1
  H  H229  1  0.86200000  0.62470000  0.42210000  1
  H  H230  1  0.27090000  0.35160000  0.00780000  1
  H  H231  1  0.12250000  0.00780000  0.14840000  1
  H  H232  1  0.92650000  0.12930000  0.34130000  1
  H  H233  1  0.60410000  0.92220000  0.66240000  1
  H  H234  1  0.44770000  0.92300000  0.81420000  1
  H  H235  1  0.66470000  0.75270000  0.59530000  1
  H  H236  1  0.15030000  0.96950000  0.10850000  1
  H  H237  1  0.62010000  0.69260000  0.63840000  1
  H  H238  1  0.00360000  0.92600000  0.23180000  1
  H  H239  1  0.25880000  0.39150000  0.96950000  1
  H  H240  1  0.71520000  0.75080000  0.51260000  1
  H  H241  1  0.07350000  0.96960000  0.15320000  1
  H  H242  1  0.29640000  0.19010000  0.92670000  1
  H  H243  1  0.87020000  0.06780000  0.35060000  1
  H  H244  1  0.22670000  0.34680000  0.96960000  1
  H  H245  1  0.80800000  0.35300000  0.38640000  1
  H  H246  1  0.33900000  0.61360000  0.85300000  1
  H  H247  1  0.26650000  0.83760000  0.92220000  1
  H  H248  1  0.93520000  0.41290000  0.25330000  1
  H  H249  1  0.04890000  0.19260000  0.13840000  1
  H  H250  1  0.26190000  0.68580000  0.92300000  1
  H  H251  1  0.61210000  0.51450000  0.56970000  1
  H  H252  1  0.48860000  0.70770000  0.68990000  1
  H  H253  1  0.12680000  0.37050000  0.04170000  1
  H  H254  1  0.23540000  0.26820000  0.92600000  1
  H  H255  1  0.39860000  0.91290000  0.75330000  1
  H  H256  1  0.61980000  0.10850000  0.53050000  1
  H  H257  1  0.61350000  0.99020000  0.53140000  1
  H  H258  1  0.50110000  0.51780000  0.63720000  1
  H  H259  1  0.01330000  0.57790000  0.12470000  1
  H  H260  1  0.14490000  0.96860000  0.99020000  1
  H  H261  1  0.56200000  0.64940000  0.56780000  1
  H  H262  1  0.81510000  0.42300000  0.31420000  1
  H  H263  1  0.02360000  0.86290000  0.10550000  1
  H  H264  1  0.99730000  0.04170000  0.12950000  1
  H  H265  1  0.63030000  0.14840000  0.49220000  1
  H  H266  1  0.00710000  0.91770000  0.11090000  1
  H  H267  1  0.89980000  0.19950000  0.21710000  1
  H  H268  1  0.11250000  0.40870000  0.00230000  1
  H  H269  1  0.82150000  0.18990000  0.29230000  1
  H  H270  1  0.02120000  0.00230000  0.09130000  1
  H  H271  1  0.68220000  0.34220000  0.42620000  1
  H  H272  1  0.39740000  0.59740000  0.70900000  1
  H  H273  1  0.63560000  0.80040000  0.46860000  1
  H  H274  1  0.13510000  0.50980000  0.96860000  1
  H  H275  1  0.07720000  0.94590000  0.02470000  1
  H  H276  1  0.40070000  0.78290000  0.69950000  1
  H  H277  1  0.89580000  0.96860000  0.19960000  1
  H  H278  1  0.60850000  0.47110000  0.48310000  1
  H  H279  1  0.71590000  0.92210000  0.37530000  1
  H  H280  1  0.31120000  0.56760000  0.77980000  1
  H  H281  1  0.94380000  0.89170000  0.14390000  1
  H  H282  1  0.98730000  0.25270000  0.09530000  1
  H  H283  1  0.98470000  0.54620000  0.09640000  1
  H  H284  1  0.38330000  0.53040000  0.69520000  1
  H  H285  1  0.52310000  0.02470000  0.55410000  1
  H  H286  1  0.44420000  0.65870000  0.62930000  1
  H  H287  1  0.54310000  0.15320000  0.53040000  1
  H  H288  1  0.15190000  0.74670000  0.91290000  1
  H  H289  1  0.09540000  0.30040000  0.96860000  1
  H  H290  1  0.66450000  0.85610000  0.39170000  1
  H  H291  1  0.57780000  0.40180000  0.47260000  1
  H  H292  1  0.74150000  0.13840000  0.30740000  1
  H  H293  1  0.10190000  0.47530000  0.94590000  1
  H  H294  1  0.11800000  0.38910000  0.91770000  1
  H  H295  1  0.02140000  0.25080000  0.01260000  1
  H  H296  1  0.62730000  0.95380000  0.40360000  1
  H  H297  1  0.18870000  0.57780000  0.83760000  1
  H  H298  1  0.38650000  0.10550000  0.63710000  1
  H  H299  1  0.77220000  0.01260000  0.24920000  1
  H  H300  1  0.52350000  0.09130000  0.49770000  1
  H  H301  1  0.91230000  0.64390000  0.10830000  1
  H  H302  1  0.33690000  0.62430000  0.67890000  1
  H  H303  1  0.96910000  0.90360000  0.04620000  1
  H  H304  1  0.58680000  0.69010000  0.42670000  1
  H  H305  1  0.09120000  0.12470000  0.92210000  1
  H  H306  1  0.26000000  0.90470000  0.75270000  1
  H  H307  1  0.66690000  0.44650000  0.34150000  1
  H  H308  1  0.87090000  0.60550000  0.13710000  1
  H  H309  1  0.42480000  0.11090000  0.58230000  1
  H  H310  1  0.42960000  0.23180000  0.57400000  1
  H  H311  1  0.46100000  0.87050000  0.54170000  1
  C  C312  1  0.91320000  0.46059000  0.08461000  1
  C  C313  1  0.18761000  0.57732000  0.80626000  1
  C  C314  1  0.06902000  0.09791000  0.92245000  1
  C  C315  1  0.26276000  0.56883000  0.72665000  1
  C  C316  1  0.22722000  0.88350000  0.75926000  1
  C  C317  1  0.09329000  0.38741000  0.89281000  1
  C  C318  1  0.18038000  0.87857000  0.80543000  1
  C  C319  1  0.37351000  0.11259000  0.60719000  1
  C  C320  1  0.81561000  0.09318000  0.15816000  1
  C  C321  1  0.65611000  0.44091000  0.31227000  1
  C  C322  1  0.73874000  0.42922000  0.22810000  1
  C  C323  1  0.43448000  0.89371000  0.52133000  1
  C  C324  1  0.39668000  0.25155000  0.55609000  1
  C  C325  1  0.22638000  0.85800000  0.72344000  1
  C  C326  1  0.13192000  0.84705000  0.81451000  1
  C  C327  1  0.86045000  0.94553000  0.08503000  1
  C  C328  1  0.38736000  0.29771000  0.55537000  1
  C  C329  1  0.62017000  0.40493000  0.31893000  1
  C  C330  1  0.27395000  0.97174000  0.66208000  1
  C  C331  1  0.02623000  0.65816000  0.90682000  1
  C  C332  1  0.33307000  0.07755000  0.59791000  1
  C  C333  1  0.86887000  0.50027000  0.06099000  1
  C  C334  1  0.92232000  0.76175000  0.00461000  1
  C  C335  1  0.18407000  0.00461000  0.73825000  1
  C  C336  1  0.36416000  0.92987000  0.55121000  1
  C  C337  1  0.87379000  0.08461000  0.03941000  1
  C  C338  1  0.17921000  0.82755000  0.73243000  1
  C  C339  1  0.36907000  0.59414000  0.54252000  1
  C  C340  1  0.00853000  0.42245000  0.90209000  1
  C  C341  1  0.13252000  0.82186000  0.77730000  1
  C  C342  1  0.87903000  0.73208000  0.03066000  1
  C  C343  1  0.93603000  0.83792000  0.97174000  1
  C  C344  1  0.01930000  0.10719000  0.88741000  1
  C  C345  1  0.54417000  0.40833000  0.36233000  1
  C  C346  1  0.52344000  0.37166000  0.38186000  1
  C  C347  1  0.18738000  0.57628000  0.71696000  1
  C  C348  1  0.40796000  0.86868000  0.48920000  1
  C  C349  1  0.94548000  0.41497000  0.94553000  1
  C  C350  1  0.35823000  0.23208000  0.53066000  1
  C  C351  1  0.88556000  0.80949000  0.00299000  1
  C  C352  1  0.35086000  0.55260000  0.53688000  1
  C  C353  1  0.19505000  0.00299000  0.69051000  1
  C  C354  1  0.80136000  0.24641000  0.08267000  1
  C  C355  1  0.11111000  0.03066000  0.76792000  1
  C  C356  1  0.30729000  0.62914000  0.57088000  1
  C  C357  1  0.45840000  0.03941000  0.41539000  1
  C  C358  1  0.45308000  0.37785000  0.41939000  1
  C  C359  1  0.98648000  0.74074000  0.88350000  1
  C  C360  1  0.11597000  0.58267000  0.75359000  1
  C  C361  1  0.43013000  0.99973000  0.43901000  1
  C  C362  1  0.34035000  0.32836000  0.52874000  1
  C  C363  1  0.86914000  0.06099000  0.99973000  1
  C  C364  1  0.52103000  0.18549000  0.34705000  1
  C  C365  1  0.48931000  0.45475000  0.37843000  1
  C  C366  1  0.54562000  0.22270000  0.32186000  1
  C  C367  1  0.98581000  0.69457000  0.87857000  1
  C  C368  1  0.30598000  0.08503000  0.55447000  1
  C  C369  1  0.79568000  0.75155000  0.05609000  1
  C  C370  1  0.95581000  0.97867000  0.89371000  1
  C  C371  1  0.91537000  0.94879000  0.92987000  1
  C  C372  1  0.42263000  0.45618000  0.41776000  1
  C  C373  1  0.27411000  0.54613000  0.56025000  1
  C  C374  1  0.80255000  0.82836000  0.02874000  1
  C  C375  1  0.84952000  0.60629000  0.97867000  1
  C  C376  1  0.23235000  0.62276000  0.59434000  1
  C  C377  1  0.49324000  0.26757000  0.32755000  1
  C  C378  1  0.44105000  0.19457000  0.37857000  1
  C  C379  1  0.31132000  0.26175000  0.50461000  1
  C  C380  1  0.40879000  0.15816000  0.40682000  1
  C  C381  1  0.75956000  0.79771000  0.05537000  1
  C  C382  1  0.73634000  0.28304000  0.07628000  1
  C  C383  1  0.73507000  0.19374000  0.07732000  1
  C  C384  1  0.25817000  0.50297000  0.55149000  1
  C  C385  1  0.94982000  0.77656000  0.85800000  1
  C  C386  1  0.30196000  0.30949000  0.50299000  1
  C  C387  1  0.21288000  0.58128000  0.59096000  1
  C  C388  1  0.13091000  0.02874000  0.67164000  1
  C  C389  1  0.54777000  0.08267000  0.25359000  1
  C  C390  1  0.04723000  0.05609000  0.74845000  1
  C  C391  1  0.84524000  0.57013000  0.94879000  1
  C  C392  1  0.94643000  0.68549000  0.84705000  1
  C  C393  1  0.70584000  0.40904000  0.08128000  1
  C  C394  1  0.76584000  0.63132000  0.01080000  1
  C  C395  1  0.41562000  0.27656000  0.35800000  1
  C  C396  1  0.38928000  0.24074000  0.38350000  1
  C  C397  1  0.64489000  0.40566000  0.12276000  1
  C  C398  1  0.89716000  0.01080000  0.86868000  1
  C  C399  1  0.05727000  0.05537000  0.70229000  1
  C  C400  1  0.12753000  0.91939000  0.62215000  1
  C  C401  1  0.90777000  0.52826000  0.83792000  1
  C  C402  1  0.73886000  0.44851000  0.00297000  1
  C  C403  1  0.91164000  0.76757000  0.82755000  1
  C  C404  1  0.68737000  0.00297000  0.05149000  1
  C  C405  1  0.66796000  0.22810000  0.07078000  1
  C  C406  1  0.66841000  0.27335000  0.06883000  1
  C  C407  1  0.51938000  0.07628000  0.21696000  1
  C  C408  1  0.42881000  0.07732000  0.30626000  1
  C  C409  1  0.90982000  0.72270000  0.82186000  1
  C  C410  1  0.25431000  0.33792000  0.47174000  1
  C  C411  1  0.67976000  0.43975000  0.04613000  1
  C  C412  1  0.09470000  0.88186000  0.62834000  1
  C  C413  1  0.61488000  0.08128000  0.09096000  1
  C  C414  1  0.15961000  0.91776000  0.54382000  1
  C  C415  1  0.88855000  0.49701000  0.80949000  1
  C  C416  1  0.10899000  0.44553000  0.58503000  1
  C  C417  1  0.56357000  0.42912000  0.12914000  1
  C  C418  1  0.92693000  0.49539000  0.76175000  1
  C  C419  1  0.19034000  0.05149000  0.49703000  1
  C  C420  1  0.09350000  0.86233000  0.59167000  1
  C  C421  1  0.61951000  0.04613000  0.06025000  1
  C  C422  1  0.13226000  0.87843000  0.54525000  1
  C  C423  1  0.74968000  0.87785000  0.91939000  1
  C  C424  1  0.44176000  0.06883000  0.22665000  1
  C  C425  1  0.39606000  0.07078000  0.27190000  1
  C  C426  1  0.08938000  0.40209000  0.57755000  1
  C  C427  1  0.83129000  0.47126000  0.82836000  1
  C  C428  1  0.59702000  0.31227000  0.05909000  1
  C  C429  1  0.06090000  0.81893000  0.59507000  1
  C  C430  1  0.59654000  0.46312000  0.05260000  1
  C  C431  1  0.55055000  0.12276000  0.09434000  1
  C  C432  1  0.90969000  0.46934000  0.73208000  1
  C  C433  1  0.20597000  0.44879000  0.42987000  1
  C  C434  1  0.53679000  0.45748000  0.09414000  1
  C  C435  1  0.01390000  0.39281000  0.61259000  1
  C  C436  1  0.70343000  0.95618000  0.91776000  1
  C  C437  1  0.52510000  0.31893000  0.09507000  1
  C  C438  1  0.16564000  0.06025000  0.45387000  1
  C  C439  1  0.19616000  0.09096000  0.41872000  1
  C  C440  1  0.81493000  0.44463000  0.79771000  1
  C  C441  1  0.86998000  0.61650000  0.74074000  1
  C  C442  1  0.72304000  0.87166000  0.88186000  1
  C  C443  1  0.03316000  0.72810000  0.57078000  1
  C  C444  1  0.85177000  0.44391000  0.75155000  1
  C  C445  1  0.40929000  0.05909000  0.18773000  1
  C  C446  1  0.55966000  0.05260000  0.03688000  1
  C  C447  1  0.22336000  0.51080000  0.36868000  1
  C  C448  1  0.93305000  0.59318000  0.65816000  1
  C  C449  1  0.03162000  0.81227000  0.55909000  1
  C  C450  1  0.80782000  0.64200000  0.77656000  1
  C  C451  1  0.62119000  0.58224000  0.95618000  1
  C  C452  1  0.99387000  0.69374000  0.57732000  1
  C  C453  1  0.07014000  0.56099000  0.49973000  1
  C  C454  1  0.17181000  0.47867000  0.39371000  1
  C  C455  1  0.49269000  0.12914000  0.07088000  1
  C  C456  1  0.11226000  0.03688000  0.44740000  1
  C  C457  1  0.86438000  0.62143000  0.69457000  1
  C  C458  1  0.98941000  0.77335000  0.56883000  1
  C  C459  1  0.67751000  0.95475000  0.87843000  1
  C  C460  1  0.17331000  0.09434000  0.37724000  1
  C  C461  1  0.13044000  0.25359000  0.41733000  1
  C  C462  1  0.68517000  0.90833000  0.86233000  1
  C  C463  1  0.66907000  0.58061000  0.87785000  1
  C  C464  1  0.26832000  0.32186000  0.27730000  1
  C  C465  1  0.45250000  0.36233000  0.09167000  1
  C  C466  1  0.00219000  0.58461000  0.53941000  1
  C  C467  1  0.49427000  0.09414000  0.04252000  1
  C  C468  1  0.34403000  0.09507000  0.18107000  1
  C  C469  1  0.39510000  0.38186000  0.12834000  1
  C  C470  1  0.20652000  0.34705000  0.31451000  1
  C  C471  1  0.09566000  0.21696000  0.42372000  1
  C  C472  1  0.55594000  0.62157000  0.95475000  1
  C  C473  1  0.87817000  0.92912000  0.62914000  1
  C  C474  1  0.73919000  0.67245000  0.76757000  1
  C  C475  1  0.91159000  0.95748000  0.59414000  1
  C  C476  1  0.08841000  0.04252000  0.40586000  1
  C  C477  1  0.26081000  0.32755000  0.23243000  1
  C  C478  1  0.12183000  0.07088000  0.37086000  1
  C  C479  1  0.44406000  0.37843000  0.04525000  1
  C  C480  1  0.90434000  0.78304000  0.57628000  1
  C  C481  1  0.79348000  0.65295000  0.68549000  1
  C  C482  1  0.60490000  0.61814000  0.87166000  1
  C  C483  1  0.65597000  0.90493000  0.81893000  1
  C  C484  1  0.50573000  0.90586000  0.95748000  1
  C  C485  1  0.99781000  0.41539000  0.46059000  1
  C  C486  1  0.54750000  0.63767000  0.90833000  1
  C  C487  1  0.73168000  0.67814000  0.72270000  1
  C  C488  1  0.33093000  0.41939000  0.12215000  1
  C  C489  1  0.31483000  0.09167000  0.13767000  1
  C  C490  1  0.86956000  0.74641000  0.58267000  1
  C  C491  1  0.82669000  0.90566000  0.62276000  1
  C  C492  1  0.32249000  0.04525000  0.12157000  1
  C  C493  1  0.01059000  0.22665000  0.43117000  1
  C  C494  1  0.13562000  0.37857000  0.30543000  1
  C  C495  1  0.88774000  0.96312000  0.55260000  1
  C  C496  1  0.50731000  0.87086000  0.92912000  1
  C  C497  1  0.82819000  0.52133000  0.60629000  1
  C  C498  1  0.92986000  0.43901000  0.50027000  1
  C  C499  1  0.00613000  0.30626000  0.42268000  1
  C  C500  1  0.37881000  0.41776000  0.04382000  1
  C  C501  1  0.19218000  0.35800000  0.22344000  1
  C  C502  1  0.96838000  0.18773000  0.44091000  1
  C  C503  1  0.06695000  0.40682000  0.34184000  1
  C  C504  1  0.77664000  0.48920000  0.63132000  1
  C  C505  1  0.44034000  0.94740000  0.96312000  1
  C  C506  1  0.59071000  0.94091000  0.81227000  1
  C  C507  1  0.14823000  0.55609000  0.24845000  1
  C  C508  1  0.96684000  0.27190000  0.42922000  1
  C  C509  1  0.27696000  0.12834000  0.11814000  1
  C  C510  1  0.13002000  0.38350000  0.25926000  1
  C  C511  1  0.18507000  0.55537000  0.20229000  1
  C  C512  1  0.80384000  0.90904000  0.58128000  1
  C  C513  1  0.83436000  0.93975000  0.54613000  1
  C  C514  1  0.47490000  0.68107000  0.90493000  1
  C  C515  1  0.29657000  0.04382000  0.08224000  1
  C  C516  1  0.98610000  0.60719000  0.38741000  1
  C  C517  1  0.46321000  0.54252000  0.90586000  1
  C  C518  1  0.79403000  0.55121000  0.57013000  1
  C  C519  1  0.09031000  0.53066000  0.26792000  1
  C  C520  1  0.44945000  0.87724000  0.90566000  1
  C  C521  1  0.40346000  0.53688000  0.94740000  1
  C  C522  1  0.93910000  0.18107000  0.40493000  1
  C  C523  1  0.40298000  0.68773000  0.94091000  1
  C  C524  1  0.16871000  0.52874000  0.17164000  1
  C  C525  1  0.91062000  0.59791000  0.42245000  1
  C  C526  1  0.60394000  0.92922000  0.72810000  1
  C  C527  1  0.55824000  0.93117000  0.77335000  1
  C  C528  1  0.25032000  0.12215000  0.08061000  1
  C  C529  1  0.86774000  0.12157000  0.45475000  1
  C  C530  1  0.38049000  0.95387000  0.93975000  1
  C  C531  1  0.90650000  0.13767000  0.40833000  1
  C  C532  1  0.80966000  0.94851000  0.50297000  1
  C  C533  1  0.07307000  0.50461000  0.23825000  1
  C  C534  1  0.43643000  0.57088000  0.87086000  1
  C  C535  1  0.89101000  0.55447000  0.41497000  1
  C  C536  1  0.11145000  0.50299000  0.19051000  1
  C  C537  1  0.84039000  0.08224000  0.45618000  1
  C  C538  1  0.38512000  0.91872000  0.90904000  1
  C  C539  1  0.90530000  0.11814000  0.37166000  1
  C  C540  1  0.32024000  0.56025000  0.95387000  1
  C  C541  1  0.74569000  0.66208000  0.52826000  1
  C  C542  1  0.09018000  0.27730000  0.17814000  1
  C  C543  1  0.57119000  0.92268000  0.69374000  1
  C  C544  1  0.48062000  0.92372000  0.78304000  1
  C  C545  1  0.33159000  0.72665000  0.93117000  1
  C  C546  1  0.33204000  0.77190000  0.92922000  1
  C  C547  1  0.31263000  0.99703000  0.94851000  1
  C  C548  1  0.08836000  0.23243000  0.17245000  1
  C  C549  1  0.26114000  0.55149000  0.99703000  1
  C  C550  1  0.09223000  0.47174000  0.16208000  1
  C  C551  1  0.87247000  0.08061000  0.37785000  1
  C  C552  1  0.94273000  0.94463000  0.29771000  1
  C  C553  1  0.10284000  0.98920000  0.13132000  1
  C  C554  1  0.35511000  0.59434000  0.87724000  1
  C  C555  1  0.61072000  0.75926000  0.61650000  1
  C  C556  1  0.58438000  0.72344000  0.64200000  1
  C  C557  1  0.23416000  0.36868000  0.98920000  1
  C  C558  1  0.29416000  0.59096000  0.91872000  1
  C  C559  1  0.05357000  0.31451000  0.15295000  1
  C  C560  1  0.15476000  0.42987000  0.05121000  1
  C  C561  1  0.95277000  0.94391000  0.25155000  1
  C  C562  1  0.45223000  0.91733000  0.74641000  1
  C  C563  1  0.86909000  0.97126000  0.32836000  1
  C  C564  1  0.78712000  0.41872000  0.40904000  1
  C  C565  1  0.69804000  0.69051000  0.49701000  1
  C  C566  1  0.05018000  0.22344000  0.14200000  1
  C  C567  1  0.74183000  0.49703000  0.44851000  1
  C  C568  1  0.26493000  0.80626000  0.92268000  1
  C  C569  1  0.26366000  0.71696000  0.92372000  1
  C  C570  1  0.24044000  0.20229000  0.94463000  1
  C  C571  1  0.59121000  0.84184000  0.59318000  1
  C  C572  1  0.68868000  0.73825000  0.49539000  1
  C  C573  1  0.55895000  0.80543000  0.62143000  1
  C  C574  1  0.50676000  0.73243000  0.67245000  1
  C  C575  1  0.76765000  0.37724000  0.40566000  1
  C  C576  1  0.15048000  0.39371000  0.02133000  1
  C  C577  1  0.19745000  0.17164000  0.97126000  1
  C  C578  1  0.72589000  0.45387000  0.43975000  1
  C  C579  1  0.57737000  0.54382000  0.58224000  1
  C  C580  1  0.08463000  0.05121000  0.07013000  1
  C  C581  1  0.04419000  0.02133000  0.10629000  1
  C  C582  1  0.20432000  0.24845000  0.94391000  1
  C  C583  1  0.69402000  0.91497000  0.44553000  1
  C  C584  1  0.01419000  0.30543000  0.12143000  1
  C  C585  1  0.45438000  0.77730000  0.67814000  1
  C  C586  1  0.51069000  0.54525000  0.62157000  1
  C  C587  1  0.47897000  0.81451000  0.65295000  1
  C  C588  1  0.13086000  0.93901000  0.00027000  1
  C  C589  1  0.65965000  0.67164000  0.47126000  1
  C  C590  1  0.56987000  0.00027000  0.56099000  1
  C  C591  1  0.88403000  0.41733000  0.24641000  1
  C  C592  1  0.01352000  0.25926000  0.11650000  1
  C  C593  1  0.54692000  0.62215000  0.58061000  1
  C  C594  1  0.54160000  0.96059000  0.58461000  1
  C  C595  1  0.69271000  0.37086000  0.42912000  1
  C  C596  1  0.88889000  0.96934000  0.23208000  1
  C  C597  1  0.19864000  0.75359000  0.91733000  1
  C  C598  1  0.80495000  0.99701000  0.30949000  1
  C  C599  1  0.64914000  0.44740000  0.46312000  1
  C  C600  1  0.11444000  0.19051000  0.99701000  1
  C  C601  1  0.64177000  0.76792000  0.46934000  1
  C  C602  1  0.05452000  0.58503000  0.05447000  1
  C  C603  1  0.59204000  0.13132000  0.51080000  1
  C  C604  1  0.81262000  0.42372000  0.28304000  1
  C  C605  1  0.47656000  0.62834000  0.61814000  1
  C  C606  1  0.45583000  0.59167000  0.63767000  1
  C  C607  1  0.98070000  0.89281000  0.11259000  1
  C  C608  1  0.06397000  0.16208000  0.02826000  1
  C  C609  1  0.12097000  0.26792000  0.96934000  1
  C  C610  1  0.86748000  0.17814000  0.22270000  1
  C  C611  1  0.99147000  0.57755000  0.09791000  1
  C  C612  1  0.63093000  0.40586000  0.45748000  1
  C  C613  1  0.82079000  0.17245000  0.26757000  1
  C  C614  1  0.12621000  0.91539000  0.96059000  1
  C  C615  1  0.63584000  0.07013000  0.44879000  1
  C  C616  1  0.81593000  0.99539000  0.26175000  1
  C  C617  1  0.07768000  0.23825000  0.99539000  1
  C  C618  1  0.13113000  0.49973000  0.93901000  1
  C  C619  1  0.66693000  0.92245000  0.40209000  1
  C  C620  1  0.97377000  0.34184000  0.09318000  1
  C  C621  1  0.72605000  0.02826000  0.33792000  1
  C  C622  1  0.37983000  0.59507000  0.68107000  1
  C  C623  1  0.61264000  0.70229000  0.44463000  1
  C  C624  1  0.13955000  0.05447000  0.91497000  1
  C  C625  1  0.86808000  0.15295000  0.18549000  1
  C  C626  1  0.77362000  0.14200000  0.27656000  1
  C  C627  1  0.60332000  0.74845000  0.44391000  1
  C  C628  1  0.56552000  0.10629000  0.47867000  1
  C  C629  1  0.26126000  0.57078000  0.77190000  1
  C  C630  1  0.34389000  0.55909000  0.68773000  1
  C  C631  1  0.18439000  0.90682000  0.84184000  1
  C  C632  1  0.62649000  0.88741000  0.39281000  1
  C  C633  1  0.81962000  0.12143000  0.19457000  1
  C  C634  1  0.90671000  0.61259000  0.10719000  1
  C  C635  1  0.77278000  0.11650000  0.24074000  1
  C  C636  1  0.73724000  0.43117000  0.27335000  1
  C  C637  1  0.93098000  0.90209000  0.07755000  1
  C  C638  1  0.81239000  0.42268000  0.19374000  1
  C  C639  1  0.08680000  0.53941000  0.91539000  1
  N  N640  1  0.92337000  0.41807000  0.07221000  1
  N  N641  1  0.85251000  0.10024000  0.11404000  1
  N  N642  1  0.35721000  0.93179000  0.59523000  1
  N  N643  1  0.03345000  0.61404000  0.89976000  1
  N  N644  1  0.84144000  0.07221000  0.08193000  1
  N  N645  1  0.11492000  0.58297000  0.79801000  1
  N  N646  1  0.28401000  0.96638000  0.61754000  1
  N  N647  1  0.80211000  0.20199000  0.08297000  1
  N  N648  1  0.95244000  0.90477000  0.93179000  1
  N  N649  1  0.80772000  0.95244000  0.06044000  1
  N  N650  1  0.90155000  0.88246000  0.96638000  1
  N  N651  1  0.45275000  0.11404000  0.39976000  1
  N  N652  1  0.40568000  0.41719000  0.43865000  1
  N  N653  1  0.41365000  0.08193000  0.42779000  1
  N  N654  1  0.86816000  0.43956000  0.95244000  1
  N  N655  1  0.74550000  0.99480000  0.07284000  1
  N  N656  1  0.81834000  0.42716000  0.99480000  1
  N  N657  1  0.26016000  0.06044000  0.54756000  1
  N  N658  1  0.50410000  0.08297000  0.29801000  1
  N  N659  1  0.88423000  0.56821000  0.90477000  1
  N  N660  1  0.18686000  0.49480000  0.57284000  1
  N  N661  1  0.86793000  0.53362000  0.88246000  1
  N  N662  1  0.24030000  0.07284000  0.50520000  1
  N  N663  1  0.17940000  0.45244000  0.56044000  1
  N  N664  1  0.15567000  0.93865000  0.58281000  1
  N  N665  1  0.24961000  0.38246000  0.46638000  1
  N  N666  1  0.73848000  0.91719000  0.93865000  1
  N  N667  1  0.21100000  0.40477000  0.43179000  1
  N  N668  1  0.67713000  0.56135000  0.91719000  1
  N  N669  1  0.00442000  0.57221000  0.58193000  1
  N  N670  1  0.93321000  0.60024000  0.61404000  1
  N  N671  1  0.08707000  0.29801000  0.41703000  1
  N  N672  1  0.91293000  0.70199000  0.58297000  1
  N  N673  1  0.06679000  0.39976000  0.38596000  1
  N  N674  1  0.99558000  0.42779000  0.41807000  1
  N  N675  1  0.32287000  0.43865000  0.08281000  1
  N  N676  1  0.78900000  0.59523000  0.56821000  1
  N  N677  1  0.26152000  0.08281000  0.06135000  1
  N  N678  1  0.75039000  0.61754000  0.53362000  1
  N  N679  1  0.84433000  0.06135000  0.41719000  1
  N  N680  1  0.82060000  0.54756000  0.43956000  1
  N  N681  1  0.75970000  0.92716000  0.49480000  1
  N  N682  1  0.13207000  0.46638000  0.11754000  1
  N  N683  1  0.81314000  0.50520000  0.42716000  1
  N  N684  1  0.11577000  0.43179000  0.09523000  1
  N  N685  1  0.49590000  0.91703000  0.70199000  1
  N  N686  1  0.73984000  0.93956000  0.45244000  1
  N  N687  1  0.18166000  0.57284000  0.00520000  1
  N  N688  1  0.25450000  0.00520000  0.92716000  1
  N  N689  1  0.13184000  0.56044000  0.04756000  1
  N  N690  1  0.58635000  0.91807000  0.57221000  1
  N  N691  1  0.59432000  0.58281000  0.56135000  1
  N  N692  1  0.54725000  0.88596000  0.60024000  1
  N  N693  1  0.09845000  0.11754000  0.03362000  1
  N  N694  1  0.19228000  0.04756000  0.93956000  1
  N  N695  1  0.04756000  0.09523000  0.06821000  1
  N  N696  1  0.19789000  0.79801000  0.91703000  1
  N  N697  1  0.71599000  0.03362000  0.38246000  1
  N  N698  1  0.88508000  0.41703000  0.20199000  1
  N  N699  1  0.15856000  0.92779000  0.91807000  1
  N  N700  1  0.96655000  0.38596000  0.10024000  1
  N  N701  1  0.64279000  0.06821000  0.40477000  1
  N  N702  1  0.14749000  0.89976000  0.88596000  1
  N  N703  1  0.07663000  0.58193000  0.92779000  1
  O  O704  1  0.05527000  0.66962000  0.93744000  1
  O  O705  1  0.67057000  0.04938000  0.31778000  1
  O  O706  1  0.85230000  0.97546000  0.11666000  1
  O  O707  1  0.01165000  0.81778000  0.95062000  1
  O  O708  1  0.77511000  0.06256000  0.16962000  1
  O  O709  1  0.96896000  0.38334000  0.97546000  1
  O  O710  1  0.05982000  0.53006000  0.88224000  1
  O  O711  1  0.08496000  0.83881000  0.85645000  1
  O  O712  1  0.91012000  0.11776000  0.03006000  1
  O  O713  1  0.57623000  0.14355000  0.33881000  1
  O  O714  1  0.52788000  0.03006000  0.38224000  1
  O  O715  1  0.33624000  0.37334000  0.52958000  1
  O  O716  1  0.78110000  0.38273000  0.07699000  1
  O  O717  1  0.32776000  0.11666000  0.52454000  1
  O  O718  1  0.31048000  0.95774000  0.53180000  1
  O  O719  1  0.31607000  0.47322000  0.52216000  1
  O  O720  1  0.84228000  0.96820000  0.95774000  1
  O  O721  1  0.76084000  0.87334000  0.02958000  1
  O  O722  1  0.66383000  0.07699000  0.11727000  1
  O  O723  1  0.94141000  0.64355000  0.83881000  1
  O  O724  1  0.96227000  0.54938000  0.81778000  1
  O  O725  1  0.33767000  0.16962000  0.43744000  1
  O  O726  1  0.80002000  0.54226000  0.96820000  1
  O  O727  1  0.13418000  0.02958000  0.62666000  1
  O  O728  1  0.14191000  0.57699000  0.61727000  1
  O  O729  1  0.68855000  0.97322000  0.02216000  1
  O  O730  1  0.23178000  0.46820000  0.45774000  1
  O  O731  1  0.16177000  0.02216000  0.52678000  1
  O  O732  1  0.71071000  0.47784000  0.97322000  1
  O  O733  1  0.05558000  0.47546000  0.61666000  1
  O  O734  1  0.21995000  0.31778000  0.45062000  1
  O  O735  1  0.24082000  0.11727000  0.42301000  1
  O  O736  1  0.79042000  0.47042000  0.87334000  1
  O  O737  1  0.99271000  0.56256000  0.66962000  1
  O  O738  1  0.21978000  0.33881000  0.35645000  1
  O  O739  1  0.05794000  0.38224000  0.46994000  1
  O  O740  1  0.94206000  0.61776000  0.53006000  1
  O  O741  1  0.78022000  0.66119000  0.64355000  1
  O  O742  1  0.00729000  0.43744000  0.33038000  1
  O  O743  1  0.20958000  0.52958000  0.12666000  1
  O  O744  1  0.75918000  0.88273000  0.57699000  1
  O  O745  1  0.78005000  0.68222000  0.54938000  1
  O  O746  1  0.94442000  0.52454000  0.38334000  1
  O  O747  1  0.28929000  0.52216000  0.02678000  1
  O  O748  1  0.83823000  0.97784000  0.47322000  1
  O  O749  1  0.76822000  0.53180000  0.54226000  1
  O  O750  1  0.31145000  0.02678000  0.97784000  1
  O  O751  1  0.85809000  0.42301000  0.38273000  1
  O  O752  1  0.86582000  0.97042000  0.37334000  1
  O  O753  1  0.19998000  0.45774000  0.03180000  1
  O  O754  1  0.66233000  0.83038000  0.56256000  1
  O  O755  1  0.03773000  0.45062000  0.18222000  1
  O  O756  1  0.05859000  0.35645000  0.16119000  1
  O  O757  1  0.33617000  0.92301000  0.88273000  1
  O  O758  1  0.23916000  0.12666000  0.97042000  1
  O  O759  1  0.15772000  0.03180000  0.04226000  1
  O  O760  1  0.68393000  0.52678000  0.47784000  1
  O  O761  1  0.68952000  0.04226000  0.46820000  1
  O  O762  1  0.67224000  0.88334000  0.47546000  1
  O  O763  1  0.21890000  0.61727000  0.92301000  1
  O  O764  1  0.66376000  0.62666000  0.47042000  1
  O  O765  1  0.47212000  0.96994000  0.61776000  1
  O  O766  1  0.42377000  0.85645000  0.66119000  1
  O  O767  1  0.08988000  0.88224000  0.96994000  1
  O  O768  1  0.91504000  0.16119000  0.14355000  1
  O  O769  1  0.94018000  0.46994000  0.11776000  1
  O  O770  1  0.03104000  0.61666000  0.02454000  1
  O  O771  1  0.22489000  0.93744000  0.83038000  1
  O  O772  1  0.98835000  0.18222000  0.04938000  1
  O  O773  1  0.14770000  0.02454000  0.88334000  1
  O  O774  1  0.32943000  0.95062000  0.68222000  1
  O  O775  1  0.94473000  0.33038000  0.06256000  1
