# generated using pymatgen
data_CoH8C14SO6
_symmetry_space_group_name_H-M   'P 1'
_cell_length_a   16.70330000
_cell_length_b   17.46020000
_cell_length_c   20.01950000
_cell_angle_alpha   90.00000000
_cell_angle_beta   90.00000000
_cell_angle_gamma   100.42300000
_symmetry_Int_Tables_number   1
_chemical_formula_structural   CoH8C14SO6
_chemical_formula_sum   'Co12 H96 C168 S12 O72'
_cell_volume   5742.20393096
_cell_formula_units_Z   12
loop_
 _symmetry_equiv_pos_site_id
 _symmetry_equiv_pos_as_xyz
  1  'x, y, z'
loop_
 _atom_site_type_symbol
 _atom_site_label
 _atom_site_symmetry_multiplicity
 _atom_site_fract_x
 _atom_site_fract_y
 _atom_site_fract_z
 _atom_site_occupancy
  Co  Co0  1  0.97583000  0.74861000  0.33010000  1
  Co  Co1  1  0.90913000  0.05738000  0.65082000  1
  Co  Co2  1  0.87669000  0.55576000  0.37450000  1
  Co  Co3  1  0.62331000  0.94424000  0.87450000  1
  Co  Co4  1  0.59087000  0.44262000  0.15082000  1
  Co  Co5  1  0.52417000  0.75139000  0.83010000  1
  Co  Co6  1  0.47583000  0.24861000  0.16990000  1
  Co  Co7  1  0.40913000  0.55738000  0.84918000  1
  Co  Co8  1  0.37669000  0.05576000  0.12550000  1
  Co  Co9  1  0.12331000  0.44424000  0.62550000  1
  Co  Co10  1  0.09087000  0.94262000  0.34918000  1
  Co  Co11  1  0.02417000  0.25139000  0.66990000  1
  H  H12  1  0.99750000  0.78630000  0.49770000  1
  H  H13  1  0.99680000  0.76350000  0.15080000  1
  H  H14  1  0.99430000  0.74780000  0.03850000  1
  H  H15  1  0.99300000  0.42660000  0.43710000  1
  H  H16  1  0.98560000  0.43850000  0.22220000  1
  H  H17  1  0.97500000  0.16430000  0.39730000  1
  H  H18  1  0.97230000  0.38020000  0.33130000  1
  H  H19  1  0.96810000  0.61050000  0.87350000  1
  H  H20  1  0.96430000  0.89800000  0.75380000  1
  H  H21  1  0.93810000  0.34560000  0.84090000  1
  H  H22  1  0.91900000  0.30640000  0.06070000  1
  H  H23  1  0.90250000  0.03200000  0.98340000  1
  H  H24  1  0.89720000  0.01770000  0.87010000  1
  H  H25  1  0.89250000  0.03690000  0.46510000  1
  H  H26  1  0.89230000  0.66820000  0.74800000  1
  H  H27  1  0.89070000  0.39390000  0.93550000  1
  H  H28  1  0.83650000  0.91540000  0.78520000  1
  H  H29  1  0.81780000  0.66380000  0.92760000  1
  H  H30  1  0.81200000  0.82360000  0.39700000  1
  H  H31  1  0.81140000  0.34760000  0.63380000  1
  H  H32  1  0.80600000  0.36080000  0.08280000  1
  H  H33  1  0.80230000  0.09840000  0.11420000  1
  H  H34  1  0.76460000  0.68580000  0.77830000  1
  H  H35  1  0.76360000  0.04900000  0.49800000  1
  H  H36  1  0.73640000  0.45100000  0.99800000  1
  H  H37  1  0.73540000  0.81420000  0.27830000  1
  H  H38  1  0.69770000  0.40160000  0.61420000  1
  H  H39  1  0.69400000  0.13920000  0.58280000  1
  H  H40  1  0.68860000  0.15240000  0.13380000  1
  H  H41  1  0.68800000  0.67640000  0.89700000  1
  H  H42  1  0.68220000  0.83620000  0.42760000  1
  H  H43  1  0.66350000  0.58460000  0.28520000  1
  H  H44  1  0.60930000  0.10610000  0.43550000  1
  H  H45  1  0.60770000  0.83180000  0.24800000  1
  H  H46  1  0.60750000  0.46310000  0.96510000  1
  H  H47  1  0.60280000  0.48230000  0.37010000  1
  H  H48  1  0.59750000  0.46800000  0.48340000  1
  H  H49  1  0.58100000  0.19360000  0.56070000  1
  H  H50  1  0.56190000  0.15440000  0.34090000  1
  H  H51  1  0.53570000  0.60200000  0.25380000  1
  H  H52  1  0.53190000  0.88950000  0.37350000  1
  H  H53  1  0.52770000  0.11980000  0.83130000  1
  H  H54  1  0.52500000  0.33570000  0.89730000  1
  H  H55  1  0.51440000  0.06150000  0.72220000  1
  H  H56  1  0.50700000  0.07340000  0.93710000  1
  H  H57  1  0.50570000  0.75220000  0.53850000  1
  H  H58  1  0.50320000  0.73650000  0.65080000  1
  H  H59  1  0.50250000  0.71370000  0.99770000  1
  H  H60  1  0.49750000  0.28630000  0.00230000  1
  H  H61  1  0.49680000  0.26350000  0.34920000  1
  H  H62  1  0.49430000  0.24780000  0.46150000  1
  H  H63  1  0.49300000  0.92660000  0.06290000  1
  H  H64  1  0.48560000  0.93850000  0.27780000  1
  H  H65  1  0.47500000  0.66430000  0.10270000  1
  H  H66  1  0.47230000  0.88020000  0.16870000  1
  H  H67  1  0.46810000  0.11050000  0.62650000  1
  H  H68  1  0.46430000  0.39800000  0.74620000  1
  H  H69  1  0.43810000  0.84560000  0.65910000  1
  H  H70  1  0.41900000  0.80640000  0.43930000  1
  H  H71  1  0.40250000  0.53200000  0.51660000  1
  H  H72  1  0.39720000  0.51770000  0.62990000  1
  H  H73  1  0.39250000  0.53690000  0.03490000  1
  H  H74  1  0.39230000  0.16820000  0.75200000  1
  H  H75  1  0.39070000  0.89390000  0.56450000  1
  H  H76  1  0.33650000  0.41540000  0.71480000  1
  H  H77  1  0.31780000  0.16380000  0.57240000  1
  H  H78  1  0.31200000  0.32360000  0.10300000  1
  H  H79  1  0.31140000  0.84760000  0.86620000  1
  H  H80  1  0.30600000  0.86080000  0.41720000  1
  H  H81  1  0.30230000  0.59840000  0.38580000  1
  H  H82  1  0.26460000  0.18580000  0.72170000  1
  H  H83  1  0.26360000  0.54900000  0.00200000  1
  H  H84  1  0.23640000  0.95100000  0.50200000  1
  H  H85  1  0.23540000  0.31420000  0.22170000  1
  H  H86  1  0.19770000  0.90160000  0.88580000  1
  H  H87  1  0.19400000  0.63920000  0.91720000  1
  H  H88  1  0.18860000  0.65240000  0.36620000  1
  H  H89  1  0.18800000  0.17640000  0.60300000  1
  H  H90  1  0.18220000  0.33620000  0.07240000  1
  H  H91  1  0.16350000  0.08460000  0.21480000  1
  H  H92  1  0.10930000  0.60610000  0.06450000  1
  H  H93  1  0.10770000  0.33180000  0.25200000  1
  H  H94  1  0.10750000  0.96310000  0.53490000  1
  H  H95  1  0.10280000  0.98230000  0.12990000  1
  H  H96  1  0.09750000  0.96800000  0.01660000  1
  H  H97  1  0.08100000  0.69360000  0.93930000  1
  H  H98  1  0.06190000  0.65440000  0.15910000  1
  H  H99  1  0.03570000  0.10200000  0.24620000  1
  H  H100  1  0.03190000  0.38950000  0.12650000  1
  H  H101  1  0.02770000  0.61980000  0.66870000  1
  H  H102  1  0.02500000  0.83570000  0.60270000  1
  H  H103  1  0.01440000  0.56150000  0.77780000  1
  H  H104  1  0.00700000  0.57340000  0.56290000  1
  H  H105  1  0.00570000  0.25220000  0.96150000  1
  H  H106  1  0.00320000  0.23650000  0.84920000  1
  H  H107  1  0.00250000  0.21370000  0.50230000  1
  C  C108  1  0.99790000  0.67480000  0.52130000  1
  C  C109  1  0.99590000  0.24670000  0.46710000  1
  C  C110  1  0.99130000  0.37400000  0.42840000  1
  C  C111  1  0.98920000  0.52760000  0.81040000  1
  C  C112  1  0.98720000  0.58420000  0.26060000  1
  C  C113  1  0.98400000  0.20430000  0.94260000  1
  C  C114  1  0.98210000  0.19470000  0.87660000  1
  C  C115  1  0.98080000  0.44820000  0.80030000  1
  C  C116  1  0.98060000  0.21740000  0.40550000  1
  C  C117  1  0.97810000  0.34690000  0.36650000  1
  C  C118  1  0.97340000  0.26870000  0.35560000  1
  C  C119  1  0.97300000  0.64170000  0.45710000  1
  C  C120  1  0.96170000  0.55700000  0.86680000  1
  C  C121  1  0.95370000  0.14270000  0.98120000  1
  C  C122  1  0.94980000  0.12490000  0.84860000  1
  C  C123  1  0.94950000  0.11770000  0.77700000  1
  C  C124  1  0.94660000  0.92250000  0.40220000  1
  C  C125  1  0.94420000  0.39910000  0.84700000  1
  C  C126  1  0.93970000  0.78070000  0.74770000  1
  C  C127  1  0.92480000  0.50660000  0.91270000  1
  C  C128  1  0.92300000  0.85490000  0.75890000  1
  C  C129  1  0.92240000  0.07380000  0.95570000  1
  C  C130  1  0.92000000  0.06550000  0.88860000  1
  C  C131  1  0.91620000  0.42790000  0.90300000  1
  C  C132  1  0.88150000  0.71800000  0.75500000  1
  C  C133  1  0.87160000  0.27490000  0.07580000  1
  C  C134  1  0.87050000  0.19700000  0.08500000  1
  C  C135  1  0.86390000  0.92840000  0.42690000  1
  C  C136  1  0.84930000  0.99620000  0.45760000  1
  C  C137  1  0.84690000  0.86570000  0.77730000  1
  C  C138  1  0.84050000  0.20350000  0.62220000  1
  C  C139  1  0.80560000  0.72910000  0.77310000  1
  C  C140  1  0.80370000  0.30760000  0.08840000  1
  C  C141  1  0.80360000  0.15120000  0.10690000  1
  C  C142  1  0.80260000  0.86950000  0.41660000  1
  C  C143  1  0.79590000  0.68430000  0.30460000  1
  C  C144  1  0.78880000  0.55510000  0.96490000  1
  C  C145  1  0.78720000  0.80260000  0.78400000  1
  C  C146  1  0.77460000  0.62300000  0.93510000  1
  C  C147  1  0.77270000  0.00390000  0.47700000  1
  C  C148  1  0.76600000  0.23790000  0.60890000  1
  C  C149  1  0.76430000  0.31560000  0.61860000  1
  C  C150  1  0.73570000  0.18440000  0.11860000  1
  C  C151  1  0.73400000  0.26210000  0.10890000  1
  C  C152  1  0.72730000  0.49610000  0.97700000  1
  C  C153  1  0.72540000  0.87700000  0.43510000  1
  C  C154  1  0.71280000  0.69740000  0.28400000  1
  C  C155  1  0.71120000  0.94490000  0.46490000  1
  C  C156  1  0.70410000  0.81570000  0.80460000  1
  C  C157  1  0.69740000  0.63050000  0.91660000  1
  C  C158  1  0.69640000  0.34880000  0.60690000  1
  C  C159  1  0.69630000  0.19240000  0.58840000  1
  C  C160  1  0.69440000  0.77090000  0.27310000  1
  C  C161  1  0.65950000  0.29650000  0.12220000  1
  C  C162  1  0.65310000  0.63430000  0.27730000  1
  C  C163  1  0.65070000  0.50380000  0.95760000  1
  C  C164  1  0.63610000  0.57160000  0.92690000  1
  C  C165  1  0.62950000  0.30300000  0.58500000  1
  C  C166  1  0.62840000  0.22510000  0.57580000  1
  C  C167  1  0.61850000  0.78200000  0.25500000  1
  C  C168  1  0.58380000  0.07210000  0.40300000  1
  C  C169  1  0.58000000  0.43450000  0.38860000  1
  C  C170  1  0.57760000  0.42620000  0.45570000  1
  C  C171  1  0.57700000  0.64510000  0.25890000  1
  C  C172  1  0.57520000  0.99340000  0.41270000  1
  C  C173  1  0.56030000  0.71930000  0.24770000  1
  C  C174  1  0.55580000  0.10090000  0.34700000  1
  C  C175  1  0.55340000  0.57750000  0.90220000  1
  C  C176  1  0.55050000  0.38230000  0.27700000  1
  C  C177  1  0.55020000  0.37510000  0.34860000  1
  C  C178  1  0.54630000  0.35730000  0.48120000  1
  C  C179  1  0.53830000  0.94300000  0.36680000  1
  C  C180  1  0.52700000  0.85830000  0.95710000  1
  C  C181  1  0.52660000  0.23130000  0.85560000  1
  C  C182  1  0.52190000  0.15310000  0.86650000  1
  C  C183  1  0.51940000  0.28260000  0.90550000  1
  C  C184  1  0.51920000  0.05180000  0.30030000  1
  C  C185  1  0.51790000  0.30530000  0.37660000  1
  C  C186  1  0.51600000  0.29570000  0.44260000  1
  C  C187  1  0.51280000  0.91580000  0.76060000  1
  C  C188  1  0.51080000  0.97240000  0.31040000  1
  C  C189  1  0.50870000  0.12600000  0.92840000  1
  C  C190  1  0.50410000  0.25330000  0.96710000  1
  C  C191  1  0.50210000  0.82520000  0.02130000  1
  C  C192  1  0.49790000  0.17480000  0.97870000  1
  C  C193  1  0.49590000  0.74670000  0.03290000  1
  C  C194  1  0.49130000  0.87400000  0.07160000  1
  C  C195  1  0.48920000  0.02760000  0.68960000  1
  C  C196  1  0.48720000  0.08420000  0.23940000  1
  C  C197  1  0.48400000  0.70430000  0.55740000  1
  C  C198  1  0.48210000  0.69470000  0.62340000  1
  C  C199  1  0.48080000  0.94820000  0.69970000  1
  C  C200  1  0.48060000  0.71740000  0.09450000  1
  C  C201  1  0.47810000  0.84690000  0.13350000  1
  C  C202  1  0.47340000  0.76870000  0.14440000  1
  C  C203  1  0.47300000  0.14170000  0.04290000  1
  C  C204  1  0.46170000  0.05700000  0.63320000  1
  C  C205  1  0.45370000  0.64270000  0.51880000  1
  C  C206  1  0.44980000  0.62490000  0.65140000  1
  C  C207  1  0.44950000  0.61770000  0.72300000  1
  C  C208  1  0.44660000  0.42250000  0.09780000  1
  C  C209  1  0.44420000  0.89910000  0.65300000  1
  C  C210  1  0.43970000  0.28070000  0.75230000  1
  C  C211  1  0.42480000  0.00660000  0.58730000  1
  C  C212  1  0.42300000  0.35490000  0.74110000  1
  C  C213  1  0.42240000  0.57380000  0.54430000  1
  C  C214  1  0.42000000  0.56550000  0.61140000  1
  C  C215  1  0.41620000  0.92790000  0.59700000  1
  C  C216  1  0.38150000  0.21800000  0.74500000  1
  C  C217  1  0.37160000  0.77490000  0.42420000  1
  C  C218  1  0.37050000  0.69700000  0.41500000  1
  C  C219  1  0.36390000  0.42840000  0.07310000  1
  C  C220  1  0.34930000  0.49620000  0.04240000  1
  C  C221  1  0.34690000  0.36570000  0.72270000  1
  C  C222  1  0.34050000  0.70350000  0.87780000  1
  C  C223  1  0.30560000  0.22910000  0.72690000  1
  C  C224  1  0.30370000  0.80760000  0.41160000  1
  C  C225  1  0.30360000  0.65120000  0.39310000  1
  C  C226  1  0.30260000  0.36950000  0.08340000  1
  C  C227  1  0.29590000  0.18430000  0.19540000  1
  C  C228  1  0.28880000  0.05510000  0.53510000  1
  C  C229  1  0.28720000  0.30260000  0.71600000  1
  C  C230  1  0.27460000  0.12300000  0.56490000  1
  C  C231  1  0.27270000  0.50390000  0.02300000  1
  C  C232  1  0.26600000  0.73790000  0.89110000  1
  C  C233  1  0.26430000  0.81560000  0.88140000  1
  C  C234  1  0.23570000  0.68440000  0.38140000  1
  C  C235  1  0.23400000  0.76210000  0.39110000  1
  C  C236  1  0.22730000  0.99610000  0.52300000  1
  C  C237  1  0.22540000  0.37700000  0.06490000  1
  C  C238  1  0.21280000  0.19740000  0.21600000  1
  C  C239  1  0.21120000  0.44490000  0.03510000  1
  C  C240  1  0.20410000  0.31570000  0.69540000  1
  C  C241  1  0.19740000  0.13050000  0.58340000  1
  C  C242  1  0.19640000  0.84880000  0.89310000  1
  C  C243  1  0.19630000  0.69240000  0.91160000  1
  C  C244  1  0.19440000  0.27090000  0.22690000  1
  C  C245  1  0.15950000  0.79650000  0.37780000  1
  C  C246  1  0.15310000  0.13430000  0.22270000  1
  C  C247  1  0.15070000  0.00380000  0.54240000  1
  C  C248  1  0.13610000  0.07160000  0.57310000  1
  C  C249  1  0.12950000  0.80300000  0.91500000  1
  C  C250  1  0.12840000  0.72510000  0.92420000  1
  C  C251  1  0.11850000  0.28200000  0.24500000  1
  C  C252  1  0.08380000  0.57210000  0.09700000  1
  C  C253  1  0.08000000  0.93450000  0.11140000  1
  C  C254  1  0.07760000  0.92620000  0.04430000  1
  C  C255  1  0.07700000  0.14510000  0.24110000  1
  C  C256  1  0.07520000  0.49340000  0.08730000  1
  C  C257  1  0.06030000  0.21930000  0.25230000  1
  C  C258  1  0.05580000  0.60090000  0.15300000  1
  C  C259  1  0.05340000  0.07750000  0.59780000  1
  C  C260  1  0.05050000  0.88230000  0.22300000  1
  C  C261  1  0.05020000  0.87510000  0.15140000  1
  C  C262  1  0.04630000  0.85730000  0.01880000  1
  C  C263  1  0.03830000  0.44300000  0.13320000  1
  C  C264  1  0.02700000  0.35830000  0.54290000  1
  C  C265  1  0.02660000  0.73130000  0.64440000  1
  C  C266  1  0.02190000  0.65310000  0.63350000  1
  C  C267  1  0.01940000  0.78260000  0.59450000  1
  C  C268  1  0.01920000  0.55180000  0.19970000  1
  C  C269  1  0.01790000  0.80530000  0.12340000  1
  C  C270  1  0.01600000  0.79570000  0.05740000  1
  C  C271  1  0.01280000  0.41580000  0.73940000  1
  C  C272  1  0.01080000  0.47240000  0.18960000  1
  C  C273  1  0.00870000  0.62600000  0.57160000  1
  C  C274  1  0.00410000  0.75330000  0.53290000  1
  C  C275  1  0.00210000  0.32520000  0.47870000  1
  S  S276  1  0.96194000  0.23314000  0.27505000  1
  S  S277  1  0.95792000  0.15492000  0.06691000  1
  S  S278  1  0.88872000  0.54313000  0.98469000  1
  S  S279  1  0.61128000  0.95687000  0.48469000  1
  S  S280  1  0.54208000  0.34508000  0.56691000  1
  S  S281  1  0.53806000  0.26686000  0.77505000  1
  S  S282  1  0.46194000  0.73314000  0.22495000  1
  S  S283  1  0.45792000  0.65492000  0.43309000  1
  S  S284  1  0.38872000  0.04313000  0.51531000  1
  S  S285  1  0.11128000  0.45687000  0.01531000  1
  S  S286  1  0.04208000  0.84508000  0.93309000  1
  S  S287  1  0.03806000  0.76686000  0.72495000  1
  O  O288  1  0.99560000  0.98360000  0.39760000  1
  O  O289  1  0.99400000  0.65580000  0.26510000  1
  O  O290  1  0.98480000  0.17170000  0.74540000  1
  O  O291  1  0.97570000  0.57030000  0.44790000  1
  O  O292  1  0.97320000  0.78900000  0.91860000  1
  O  O293  1  0.96490000  0.85910000  0.38640000  1
  O  O294  1  0.95440000  0.53550000  0.30050000  1
  O  O295  1  0.94990000  0.07960000  0.09580000  1
  O  O296  1  0.94330000  0.68100000  0.41535000  1
  O  O297  1  0.93860000  0.29410000  0.23586000  1
  O  O298  1  0.93300000  0.61770000  0.99677000  1
  O  O299  1  0.91360000  0.05680000  0.75132000  1
  O  O300  1  0.91300000  0.15890000  0.27650000  1
  O  O301  1  0.90180000  0.24760000  0.63790000  1
  O  O302  1  0.88590000  0.48360000  0.03295000  1
  O  O303  1  0.85030000  0.74130000  0.30494000  1
  O  O304  1  0.83550000  0.13140000  0.61700000  1
  O  O305  1  0.80400000  0.61630000  0.31960000  1
  O  O306  1  0.69600000  0.88370000  0.81960000  1
  O  O307  1  0.66450000  0.36860000  0.11700000  1
  O  O308  1  0.64970000  0.75870000  0.80494000  1
  O  O309  1  0.61410000  0.01640000  0.53295000  1
  O  O310  1  0.59820000  0.25240000  0.13790000  1
  O  O311  1  0.58700000  0.34110000  0.77650000  1
  O  O312  1  0.58640000  0.44320000  0.25132000  1
  O  O313  1  0.56700000  0.88230000  0.49677000  1
  O  O314  1  0.56140000  0.20590000  0.73586000  1
  O  O315  1  0.55670000  0.81900000  0.91535000  1
  O  O316  1  0.55010000  0.42040000  0.59580000  1
  O  O317  1  0.54560000  0.96450000  0.80050000  1
  O  O318  1  0.53510000  0.64090000  0.88640000  1
  O  O319  1  0.52680000  0.71100000  0.41860000  1
  O  O320  1  0.52430000  0.92970000  0.94790000  1
  O  O321  1  0.51520000  0.32830000  0.24540000  1
  O  O322  1  0.50600000  0.84420000  0.76510000  1
  O  O323  1  0.50440000  0.51640000  0.89760000  1
  O  O324  1  0.49560000  0.48360000  0.10240000  1
  O  O325  1  0.49400000  0.15580000  0.23490000  1
  O  O326  1  0.48480000  0.67170000  0.75460000  1
  O  O327  1  0.47570000  0.07030000  0.05210000  1
  O  O328  1  0.47320000  0.28900000  0.58140000  1
  O  O329  1  0.46490000  0.35910000  0.11360000  1
  O  O330  1  0.45440000  0.03550000  0.19950000  1
  O  O331  1  0.44990000  0.57960000  0.40420000  1
  O  O332  1  0.44330000  0.18100000  0.08465000  1
  O  O333  1  0.43860000  0.79410000  0.26414000  1
  O  O334  1  0.43300000  0.11770000  0.50323000  1
  O  O335  1  0.41360000  0.55680000  0.74868000  1
  O  O336  1  0.41300000  0.65890000  0.22350000  1
  O  O337  1  0.40180000  0.74760000  0.86210000  1
  O  O338  1  0.38590000  0.98360000  0.46705000  1
  O  O339  1  0.35030000  0.24130000  0.19506000  1
  O  O340  1  0.33550000  0.63140000  0.88300000  1
  O  O341  1  0.30400000  0.11630000  0.18040000  1
  O  O342  1  0.19600000  0.38370000  0.68040000  1
  O  O343  1  0.16450000  0.86860000  0.38300000  1
  O  O344  1  0.14970000  0.25870000  0.69506000  1
  O  O345  1  0.11410000  0.51640000  0.96705000  1
  O  O346  1  0.09820000  0.75240000  0.36210000  1
  O  O347  1  0.08700000  0.84110000  0.72350000  1
  O  O348  1  0.08640000  0.94320000  0.24868000  1
  O  O349  1  0.06700000  0.38230000  0.00323000  1
  O  O350  1  0.06140000  0.70590000  0.76414000  1
  O  O351  1  0.05670000  0.31900000  0.58465000  1
  O  O352  1  0.05010000  0.92040000  0.90420000  1
  O  O353  1  0.04560000  0.46450000  0.69950000  1
  O  O354  1  0.03510000  0.14090000  0.61360000  1
  O  O355  1  0.02680000  0.21100000  0.08140000  1
  O  O356  1  0.02430000  0.42970000  0.55210000  1
  O  O357  1  0.01520000  0.82830000  0.25460000  1
  O  O358  1  0.00600000  0.34420000  0.73490000  1
  O  O359  1  0.00440000  0.01640000  0.60240000  1
