# generated using pymatgen
data_CoNiH14C18(NO5)2
_symmetry_space_group_name_H-M   'P 1'
_cell_length_a   9.35250000
_cell_length_b   10.91700000
_cell_length_c   24.17500000
_cell_angle_alpha   90.00000000
_cell_angle_beta   90.00000000
_cell_angle_gamma   90.00000000
_symmetry_Int_Tables_number   1
_chemical_formula_structural   CoNiH14C18(NO5)2
_chemical_formula_sum   'Co4 Ni4 H56 C72 N8 O40'
_cell_volume   2468.29753744
_cell_formula_units_Z   4
loop_
 _symmetry_equiv_pos_site_id
 _symmetry_equiv_pos_as_xyz
  1  'x, y, z'
loop_
 _atom_site_type_symbol
 _atom_site_label
 _atom_site_symmetry_multiplicity
 _atom_site_fract_x
 _atom_site_fract_y
 _atom_site_fract_z
 _atom_site_occupancy
  Co  Co0  1  0.24004000  0.23011000  0.03775000  1
  Co  Co1  1  0.25996000  0.26989000  0.53775000  1
  Co  Co2  1  0.74004000  0.26989000  0.96226000  1
  Co  Co3  1  0.75996000  0.23011000  0.46226000  1
  Ni  Ni4  1  0.24004000  0.76989000  0.53775000  1
  Ni  Ni5  1  0.25996000  0.73011000  0.03775000  1
  Ni  Ni6  1  0.74004000  0.73011000  0.46226000  1
  Ni  Ni7  1  0.75996000  0.76989000  0.96226000  1
  H  H8  1  0.00100000  0.40850000  0.29700000  1
  H  H9  1  0.00100000  0.59150000  0.79700000  1
  H  H10  1  0.08560000  0.05030000  0.21860000  1
  H  H11  1  0.08560000  0.94970000  0.71860000  1
  H  H12  1  0.10190000  0.40250000  0.11660000  1
  H  H13  1  0.10190000  0.59750000  0.61660000  1
  H  H14  1  0.11740000  0.07090000  0.42750000  1
  H  H15  1  0.11740000  0.92910000  0.92750000  1
  H  H16  1  0.14860000  0.48220000  0.43180000  1
  H  H17  1  0.14860000  0.51780000  0.93180000  1
  H  H18  1  0.15910000  0.40540000  0.89180000  1
  H  H19  1  0.15910000  0.59460000  0.39180000  1
  H  H20  1  0.17870000  0.05350000  0.13030000  1
  H  H21  1  0.17870000  0.94650000  0.63030000  1
  H  H22  1  0.32130000  0.44650000  0.63030000  1
  H  H23  1  0.32130000  0.55350000  0.13030000  1
  H  H24  1  0.34090000  0.09460000  0.39180000  1
  H  H25  1  0.34090000  0.90540000  0.89180000  1
  H  H26  1  0.35140000  0.01780000  0.93180000  1
  H  H27  1  0.35140000  0.98220000  0.43180000  1
  H  H28  1  0.38260000  0.42910000  0.92750000  1
  H  H29  1  0.38260000  0.57090000  0.42750000  1
  H  H30  1  0.39810000  0.09750000  0.61660000  1
  H  H31  1  0.39810000  0.90250000  0.11660000  1
  H  H32  1  0.41440000  0.44970000  0.71860000  1
  H  H33  1  0.41440000  0.55030000  0.21860000  1
  H  H34  1  0.49900000  0.09150000  0.79700000  1
  H  H35  1  0.49900000  0.90850000  0.29700000  1
  H  H36  1  0.50100000  0.09150000  0.70300000  1
  H  H37  1  0.50100000  0.90850000  0.20300000  1
  H  H38  1  0.58560000  0.44970000  0.78140000  1
  H  H39  1  0.58560000  0.55030000  0.28140000  1
  H  H40  1  0.60190000  0.09750000  0.88340000  1
  H  H41  1  0.60190000  0.90250000  0.38340000  1
  H  H42  1  0.61740000  0.42910000  0.57250000  1
  H  H43  1  0.61740000  0.57090000  0.07250000  1
  H  H44  1  0.64860000  0.01780000  0.56820000  1
  H  H45  1  0.64860000  0.98220000  0.06820000  1
  H  H46  1  0.65910000  0.09460000  0.10820000  1
  H  H47  1  0.65910000  0.90540000  0.60820000  1
  H  H48  1  0.67870000  0.44650000  0.86970000  1
  H  H49  1  0.67870000  0.55350000  0.36970000  1
  H  H50  1  0.82130000  0.05350000  0.36970000  1
  H  H51  1  0.82130000  0.94650000  0.86970000  1
  H  H52  1  0.84090000  0.40540000  0.60820000  1
  H  H53  1  0.84090000  0.59460000  0.10820000  1
  H  H54  1  0.85140000  0.48220000  0.06820000  1
  H  H55  1  0.85140000  0.51780000  0.56820000  1
  H  H56  1  0.88260000  0.07090000  0.07250000  1
  H  H57  1  0.88260000  0.92910000  0.57250000  1
  H  H58  1  0.89810000  0.40250000  0.38340000  1
  H  H59  1  0.89810000  0.59750000  0.88340000  1
  H  H60  1  0.91440000  0.05030000  0.28140000  1
  H  H61  1  0.91440000  0.94970000  0.78140000  1
  H  H62  1  0.99900000  0.40850000  0.20300000  1
  H  H63  1  0.99900000  0.59150000  0.70300000  1
  C  C64  1  0.03200000  0.22970000  0.22162000  1
  C  C65  1  0.03200000  0.77030000  0.72162000  1
  C  C66  1  0.03660000  0.33550000  0.18957000  1
  C  C67  1  0.03660000  0.66450000  0.68957000  1
  C  C68  1  0.03770000  0.36860000  0.96053000  1
  C  C69  1  0.03770000  0.63140000  0.46053000  1
  C  C70  1  0.08700000  0.12310000  0.19863000  1
  C  C71  1  0.08700000  0.87690000  0.69863000  1
  C  C72  1  0.09770000  0.33090000  0.13743000  1
  C  C73  1  0.09770000  0.66910000  0.63743000  1
  C  C74  1  0.14400000  0.12590000  0.14554000  1
  C  C75  1  0.14400000  0.87410000  0.64554000  1
  C  C76  1  0.16200000  0.42970000  0.93041000  1
  C  C77  1  0.16200000  0.57030000  0.43041000  1
  C  C78  1  0.16710000  0.03850000  0.50987000  1
  C  C79  1  0.16710000  0.96150000  0.00987000  1
  C  C80  1  0.19020000  0.10030000  0.45339000  1
  C  C81  1  0.19020000  0.89970000  0.95339000  1
  C  C82  1  0.30980000  0.39970000  0.95339000  1
  C  C83  1  0.30980000  0.60030000  0.45339000  1
  C  C84  1  0.33290000  0.46150000  0.00987000  1
  C  C85  1  0.33290000  0.53850000  0.50987000  1
  C  C86  1  0.33800000  0.07030000  0.43041000  1
  C  C87  1  0.33800000  0.92970000  0.93041000  1
  C  C88  1  0.35600000  0.37410000  0.64554000  1
  C  C89  1  0.35600000  0.62590000  0.14554000  1
  C  C90  1  0.40230000  0.16910000  0.63743000  1
  C  C91  1  0.40230000  0.83090000  0.13743000  1
  C  C92  1  0.41300000  0.37690000  0.69863000  1
  C  C93  1  0.41300000  0.62310000  0.19863000  1
  C  C94  1  0.46230000  0.13140000  0.46053000  1
  C  C95  1  0.46230000  0.86860000  0.96053000  1
  C  C96  1  0.46340000  0.16450000  0.68957000  1
  C  C97  1  0.46340000  0.83550000  0.18957000  1
  C  C98  1  0.46800000  0.27030000  0.72162000  1
  C  C99  1  0.46800000  0.72970000  0.22162000  1
  C  C100  1  0.53200000  0.27030000  0.77838000  1
  C  C101  1  0.53200000  0.72970000  0.27838000  1
  C  C102  1  0.53660000  0.16450000  0.81043000  1
  C  C103  1  0.53660000  0.83550000  0.31043000  1
  C  C104  1  0.53770000  0.13140000  0.03947000  1
  C  C105  1  0.53770000  0.86860000  0.53947000  1
  C  C106  1  0.58700000  0.37690000  0.80137000  1
  C  C107  1  0.58700000  0.62310000  0.30137000  1
  C  C108  1  0.59770000  0.16910000  0.86257000  1
  C  C109  1  0.59770000  0.83090000  0.36257000  1
  C  C110  1  0.64400000  0.37410000  0.85446000  1
  C  C111  1  0.64400000  0.62590000  0.35446000  1
  C  C112  1  0.66200000  0.07030000  0.06959000  1
  C  C113  1  0.66200000  0.92970000  0.56959000  1
  C  C114  1  0.66710000  0.46150000  0.49013000  1
  C  C115  1  0.66710000  0.53850000  0.99013000  1
  C  C116  1  0.69020000  0.39970000  0.54661000  1
  C  C117  1  0.69020000  0.60030000  0.04661000  1
  C  C118  1  0.80980000  0.10030000  0.04661000  1
  C  C119  1  0.80980000  0.89970000  0.54661000  1
  C  C120  1  0.83290000  0.03850000  0.99013000  1
  C  C121  1  0.83290000  0.96150000  0.49013000  1
  C  C122  1  0.83800000  0.42970000  0.56959000  1
  C  C123  1  0.83800000  0.57030000  0.06959000  1
  C  C124  1  0.85600000  0.12590000  0.35446000  1
  C  C125  1  0.85600000  0.87410000  0.85446000  1
  C  C126  1  0.90230000  0.33090000  0.36257000  1
  C  C127  1  0.90230000  0.66910000  0.86257000  1
  C  C128  1  0.91300000  0.12310000  0.30137000  1
  C  C129  1  0.91300000  0.87690000  0.80137000  1
  C  C130  1  0.96230000  0.36860000  0.53947000  1
  C  C131  1  0.96230000  0.63140000  0.03947000  1
  C  C132  1  0.96340000  0.33550000  0.31043000  1
  C  C133  1  0.96340000  0.66450000  0.81043000  1
  C  C134  1  0.96800000  0.22970000  0.27838000  1
  C  C135  1  0.96800000  0.77030000  0.77838000  1
  N  N136  1  0.15100000  0.22730000  0.11580000  1
  N  N137  1  0.15100000  0.77270000  0.61580000  1
  N  N138  1  0.34900000  0.27270000  0.61580000  1
  N  N139  1  0.34900000  0.72730000  0.11580000  1
  N  N140  1  0.65100000  0.27270000  0.88420000  1
  N  N141  1  0.65100000  0.72730000  0.38420000  1
  N  N142  1  0.84900000  0.22730000  0.38420000  1
  N  N143  1  0.84900000  0.77270000  0.88420000  1
  O  O144  1  0.05920000  0.32310000  0.00815000  1
  O  O145  1  0.05920000  0.67690000  0.50815000  1
  O  O146  1  0.08070000  0.36970000  0.56314000  1
  O  O147  1  0.08070000  0.63030000  0.06314000  1
  O  O148  1  0.14650000  0.07550000  0.00830000  1
  O  O149  1  0.14650000  0.92450000  0.50830000  1
  O  O150  1  0.16860000  0.10300000  0.55210000  1
  O  O151  1  0.16860000  0.89700000  0.05210000  1
  O  O152  1  0.17960000  0.23172000  0.45797000  1
  O  O153  1  0.17960000  0.76828000  0.95797000  1
  O  O154  1  0.32040000  0.26828000  0.95797000  1
  O  O155  1  0.32040000  0.73172000  0.45797000  1
  O  O156  1  0.33140000  0.39700000  0.05210000  1
  O  O157  1  0.33140000  0.60300000  0.55210000  1
  O  O158  1  0.35350000  0.42450000  0.50830000  1
  O  O159  1  0.35350000  0.57550000  0.00830000  1
  O  O160  1  0.41930000  0.13030000  0.06314000  1
  O  O161  1  0.41930000  0.86970000  0.56314000  1
  O  O162  1  0.44080000  0.17690000  0.50815000  1
  O  O163  1  0.44080000  0.82310000  0.00815000  1
  O  O164  1  0.55920000  0.17690000  0.99185000  1
  O  O165  1  0.55920000  0.82310000  0.49185000  1
  O  O166  1  0.58070000  0.13030000  0.43686000  1
  O  O167  1  0.58070000  0.86970000  0.93686000  1
  O  O168  1  0.64650000  0.42450000  0.99170000  1
  O  O169  1  0.64650000  0.57550000  0.49170000  1
  O  O170  1  0.66860000  0.39700000  0.44790000  1
  O  O171  1  0.66860000  0.60300000  0.94790000  1
  O  O172  1  0.67960000  0.26828000  0.54203000  1
  O  O173  1  0.67960000  0.73172000  0.04203000  1
  O  O174  1  0.82040000  0.23172000  0.04203000  1
  O  O175  1  0.82040000  0.76828000  0.54203000  1
  O  O176  1  0.83140000  0.10300000  0.94790000  1
  O  O177  1  0.83140000  0.89700000  0.44790000  1
  O  O178  1  0.85350000  0.07550000  0.49170000  1
  O  O179  1  0.85350000  0.92450000  0.99170000  1
  O  O180  1  0.91930000  0.36970000  0.93686000  1
  O  O181  1  0.91930000  0.63030000  0.43686000  1
  O  O182  1  0.94080000  0.32310000  0.49185000  1
  O  O183  1  0.94080000  0.67690000  0.99185000  1
