# generated using pymatgen
data_Cu3H13C40N3(Cl3O4)3
_symmetry_space_group_name_H-M   'P 1'
_cell_length_a   18.87640000
_cell_length_b   18.87640000
_cell_length_c   18.87640000
_cell_angle_alpha   72.96870000
_cell_angle_beta   72.96870000
_cell_angle_gamma   72.96870000
_symmetry_Int_Tables_number   1
_chemical_formula_structural   Cu3H13C40N3(Cl3O4)3
_chemical_formula_sum   'Cu12 H52 C160 N12 Cl36 O48'
_cell_volume   5989.14150305
_cell_formula_units_Z   4
loop_
 _symmetry_equiv_pos_site_id
 _symmetry_equiv_pos_as_xyz
  1  'x, y, z'
loop_
 _atom_site_type_symbol
 _atom_site_label
 _atom_site_symmetry_multiplicity
 _atom_site_fract_x
 _atom_site_fract_y
 _atom_site_fract_z
 _atom_site_occupancy
  Cu  Cu0  1  0.35191000  0.91057000  0.76859000  1
  Cu  Cu1  1  0.41057000  0.85191000  0.26859000  1
  Cu  Cu2  1  0.91057000  0.76859000  0.35191000  1
  Cu  Cu3  1  0.14809000  0.73141000  0.58943000  1
  Cu  Cu4  1  0.23141000  0.64809000  0.08943000  1
  Cu  Cu5  1  0.73141000  0.58943000  0.14809000  1
  Cu  Cu6  1  0.26859000  0.41057000  0.85191000  1
  Cu  Cu7  1  0.76859000  0.35191000  0.91057000  1
  Cu  Cu8  1  0.85191000  0.26859000  0.41057000  1
  Cu  Cu9  1  0.08943000  0.23141000  0.64809000  1
  Cu  Cu10  1  0.58943000  0.14809000  0.73141000  1
  Cu  Cu11  1  0.64809000  0.08943000  0.23141000  1
  H  H12  1  0.81600000  0.99310000  0.59680000  1
  H  H13  1  0.44020000  0.98380000  0.30420000  1
  H  H14  1  0.94357000  0.94357000  0.94357000  1
  H  H15  1  0.48380000  0.94020000  0.80420000  1
  H  H16  1  0.62520000  0.92190000  0.62960000  1
  H  H17  1  0.25500000  0.91590000  0.33560000  1
  H  H18  1  0.68400000  0.90320000  0.50690000  1
  H  H19  1  0.57810000  0.87480000  0.87040000  1
  H  H20  1  0.87480000  0.87040000  0.57810000  1
  H  H21  1  0.75500000  0.83560000  0.41590000  1
  H  H22  1  0.59680000  0.81600000  0.99310000  1
  H  H23  1  0.94020000  0.80420000  0.48380000  1
  H  H24  1  0.41590000  0.75500000  0.83560000  1
  H  H25  1  0.66440000  0.74500000  0.08410000  1
  H  H26  1  0.01620000  0.69580000  0.55980000  1
  H  H27  1  0.50690000  0.68400000  0.90320000  1
  H  H28  1  0.08410000  0.66440000  0.74500000  1
  H  H29  1  0.92190000  0.62960000  0.62520000  1
  H  H30  1  0.62960000  0.62520000  0.92190000  1
  H  H31  1  0.99310000  0.59680000  0.81600000  1
  H  H32  1  0.16440000  0.58410000  0.24500000  1
  H  H33  1  0.87040000  0.57810000  0.87480000  1
  H  H34  1  0.69580000  0.55980000  0.01620000  1
  H  H35  1  0.55643000  0.55643000  0.55643000  1
  H  H36  1  0.19580000  0.51620000  0.05980000  1
  H  H37  1  0.90320000  0.50690000  0.68400000  1
  H  H38  1  0.09680000  0.49310000  0.31600000  1
  H  H39  1  0.80420000  0.48380000  0.94020000  1
  H  H40  1  0.44357000  0.44357000  0.44357000  1
  H  H41  1  0.30420000  0.44020000  0.98380000  1
  H  H42  1  0.12960000  0.42190000  0.12520000  1
  H  H43  1  0.83560000  0.41590000  0.75500000  1
  H  H44  1  0.00690000  0.40320000  0.18400000  1
  H  H45  1  0.37040000  0.37480000  0.07810000  1
  H  H46  1  0.07810000  0.37040000  0.37480000  1
  H  H47  1  0.91590000  0.33560000  0.25500000  1
  H  H48  1  0.49310000  0.31600000  0.09680000  1
  H  H49  1  0.98380000  0.30420000  0.44020000  1
  H  H50  1  0.33560000  0.25500000  0.91590000  1
  H  H51  1  0.58410000  0.24500000  0.16440000  1
  H  H52  1  0.05980000  0.19580000  0.51620000  1
  H  H53  1  0.40320000  0.18400000  0.00690000  1
  H  H54  1  0.24500000  0.16440000  0.58410000  1
  H  H55  1  0.12520000  0.12960000  0.42190000  1
  H  H56  1  0.42190000  0.12520000  0.12960000  1
  H  H57  1  0.31600000  0.09680000  0.49310000  1
  H  H58  1  0.74500000  0.08410000  0.66440000  1
  H  H59  1  0.37480000  0.07810000  0.37040000  1
  H  H60  1  0.51620000  0.05980000  0.19580000  1
  H  H61  1  0.05643000  0.05643000  0.05643000  1
  H  H62  1  0.55980000  0.01620000  0.69580000  1
  H  H63  1  0.18400000  0.00690000  0.40320000  1
  C  C64  1  0.99514000  0.99984000  0.81274000  1
  C  C65  1  0.76340000  0.99710000  0.61570000  1
  C  C66  1  0.81274000  0.99514000  0.99984000  1
  C  C67  1  0.78710000  0.99050000  0.88600000  1
  C  C68  1  0.38781000  0.98851000  0.32521000  1
  C  C69  1  0.95291000  0.98401000  0.25671000  1
  C  C70  1  0.83795000  0.96695000  0.93355000  1
  C  C71  1  0.06700000  0.96660000  0.69570000  1
  C  C72  1  0.28487000  0.96227000  0.09757000  1
  C  C73  1  0.65070000  0.95520000  0.63500000  1
  C  C74  1  0.25671000  0.95291000  0.98401000  1
  C  C75  1  0.72844000  0.94924000  0.60294000  1
  C  C76  1  0.27944000  0.94864000  0.34364000  1
  C  C77  1  0.34261000  0.94661000  0.14531000  1
  C  C78  1  0.96695000  0.93355000  0.83795000  1
  C  C79  1  0.30430000  0.93300000  0.03340000  1
  C  C80  1  0.91957000  0.91957000  0.91957000  1
  C  C81  1  0.28017000  0.91927000  0.91397000  1
  C  C82  1  0.91927000  0.91397000  0.28017000  1
  C  C83  1  0.03773000  0.90243000  0.71513000  1
  C  C84  1  0.77156000  0.89706000  0.55076000  1
  C  C85  1  0.48851000  0.88781000  0.82521000  1
  C  C86  1  0.99050000  0.88600000  0.78710000  1
  C  C87  1  0.73660000  0.88430000  0.50290000  1
  C  C88  1  0.84930000  0.86500000  0.54480000  1
  C  C89  1  0.05339000  0.85469000  0.65739000  1
  C  C90  1  0.54480000  0.84930000  0.86500000  1
  C  C91  1  0.77944000  0.84364000  0.44864000  1
  C  C92  1  0.44661000  0.84261000  0.64531000  1
  C  C93  1  0.93355000  0.83795000  0.96695000  1
  C  C94  1  0.88781000  0.82521000  0.48851000  1
  C  C95  1  0.99984000  0.81274000  0.99514000  1
  C  C96  1  0.43300000  0.80430000  0.53340000  1
  C  C97  1  0.88600000  0.78710000  0.99050000  1
  C  C98  1  0.46227000  0.78487000  0.59757000  1
  C  C99  1  0.41927000  0.78017000  0.41397000  1
  C  C100  1  0.44864000  0.77944000  0.84364000  1
  C  C101  1  0.55076000  0.77156000  0.89706000  1
  C  C102  1  0.61570000  0.76340000  0.99710000  1
  C  C103  1  0.45291000  0.75671000  0.48401000  1
  C  C104  1  0.01599000  0.74329000  0.04709000  1
  C  C105  1  0.50290000  0.73660000  0.88430000  1
  C  C106  1  0.60294000  0.72844000  0.94924000  1
  C  C107  1  0.65636000  0.72056000  0.05136000  1
  C  C108  1  0.08603000  0.71983000  0.08073000  1
  C  C109  1  0.90243000  0.71513000  0.03773000  1
  C  C110  1  0.50950000  0.71290000  0.61400000  1
  C  C111  1  0.96660000  0.69570000  0.06700000  1
  C  C112  1  0.50486000  0.68726000  0.50016000  1
  C  C113  1  0.01149000  0.67479000  0.61219000  1
  C  C114  1  0.53305000  0.66205000  0.56645000  1
  C  C115  1  0.85469000  0.65739000  0.05339000  1
  C  C116  1  0.05136000  0.65636000  0.72056000  1
  C  C117  1  0.63500000  0.65070000  0.95520000  1
  C  C118  1  0.84261000  0.64531000  0.44661000  1
  C  C119  1  0.95520000  0.63500000  0.65070000  1
  C  C120  1  0.99710000  0.61570000  0.76340000  1
  C  C121  1  0.71290000  0.61400000  0.50950000  1
  C  C122  1  0.67479000  0.61219000  0.01149000  1
  C  C123  1  0.94924000  0.60294000  0.72844000  1
  C  C124  1  0.78487000  0.59757000  0.46227000  1
  C  C125  1  0.21983000  0.58603000  0.58073000  1
  C  C126  1  0.58603000  0.58073000  0.21983000  1
  C  C127  1  0.58043000  0.58043000  0.58043000  1
  C  C128  1  0.46660000  0.56700000  0.19570000  1
  C  C129  1  0.66205000  0.56645000  0.53305000  1
  C  C130  1  0.35469000  0.55339000  0.15739000  1
  C  C131  1  0.15636000  0.55136000  0.22056000  1
  C  C132  1  0.89706000  0.55076000  0.77156000  1
  C  C133  1  0.51599000  0.54709000  0.24329000  1
  C  C134  1  0.86500000  0.54480000  0.84930000  1
  C  C135  1  0.40243000  0.53773000  0.21513000  1
  C  C136  1  0.80430000  0.53340000  0.43300000  1
  C  C137  1  0.56645000  0.53305000  0.66205000  1
  C  C138  1  0.24329000  0.51599000  0.54709000  1
  C  C139  1  0.17479000  0.51149000  0.11219000  1
  C  C140  1  0.61400000  0.50950000  0.71290000  1
  C  C141  1  0.50016000  0.50486000  0.68726000  1
  C  C142  1  0.88430000  0.50290000  0.73660000  1
  C  C143  1  0.68726000  0.50016000  0.50486000  1
  C  C144  1  0.31274000  0.49984000  0.49514000  1
  C  C145  1  0.11570000  0.49710000  0.26340000  1
  C  C146  1  0.49984000  0.49514000  0.31274000  1
  C  C147  1  0.38600000  0.49050000  0.28710000  1
  C  C148  1  0.82521000  0.48851000  0.88781000  1
  C  C149  1  0.75671000  0.48401000  0.45291000  1
  C  C150  1  0.43355000  0.46695000  0.33795000  1
  C  C151  1  0.19570000  0.46660000  0.56700000  1
  C  C152  1  0.59757000  0.46227000  0.78487000  1
  C  C153  1  0.13500000  0.45520000  0.15070000  1
  C  C154  1  0.48401000  0.45291000  0.75671000  1
  C  C155  1  0.10294000  0.44924000  0.22844000  1
  C  C156  1  0.84364000  0.44864000  0.77944000  1
  C  C157  1  0.64531000  0.44661000  0.84261000  1
  C  C158  1  0.33795000  0.43355000  0.46695000  1
  C  C159  1  0.53340000  0.43300000  0.80430000  1
  C  C160  1  0.41957000  0.41957000  0.41957000  1
  C  C161  1  0.41397000  0.41927000  0.78017000  1
  C  C162  1  0.78017000  0.41397000  0.41927000  1
  C  C163  1  0.21513000  0.40243000  0.53773000  1
  C  C164  1  0.05076000  0.39706000  0.27156000  1
  C  C165  1  0.32521000  0.38781000  0.98851000  1
  C  C166  1  0.28710000  0.38600000  0.49050000  1
  C  C167  1  0.00290000  0.38430000  0.23660000  1
  C  C168  1  0.04480000  0.36500000  0.34930000  1
  C  C169  1  0.15739000  0.35469000  0.55339000  1
  C  C170  1  0.36500000  0.34930000  0.04480000  1
  C  C171  1  0.94864000  0.34364000  0.27944000  1
  C  C172  1  0.14531000  0.34261000  0.94661000  1
  C  C173  1  0.46695000  0.33795000  0.43355000  1
  C  C174  1  0.98851000  0.32521000  0.38781000  1
  C  C175  1  0.49514000  0.31274000  0.49984000  1
  C  C176  1  0.03340000  0.30430000  0.93300000  1
  C  C177  1  0.49050000  0.28710000  0.38600000  1
  C  C178  1  0.09757000  0.28487000  0.96227000  1
  C  C179  1  0.91397000  0.28017000  0.91927000  1
  C  C180  1  0.34364000  0.27944000  0.94864000  1
  C  C181  1  0.39706000  0.27156000  0.05076000  1
  C  C182  1  0.49710000  0.26340000  0.11570000  1
  C  C183  1  0.98401000  0.25671000  0.95291000  1
  C  C184  1  0.54709000  0.24329000  0.51599000  1
  C  C185  1  0.38430000  0.23660000  0.00290000  1
  C  C186  1  0.44924000  0.22844000  0.10294000  1
  C  C187  1  0.55136000  0.22056000  0.15636000  1
  C  C188  1  0.58073000  0.21983000  0.58603000  1
  C  C189  1  0.53773000  0.21513000  0.40243000  1
  C  C190  1  0.11400000  0.21290000  0.00950000  1
  C  C191  1  0.56700000  0.19570000  0.46660000  1
  C  C192  1  0.00016000  0.18726000  0.00486000  1
  C  C193  1  0.11219000  0.17479000  0.51149000  1
  C  C194  1  0.06645000  0.16205000  0.03305000  1
  C  C195  1  0.55339000  0.15739000  0.35469000  1
  C  C196  1  0.22056000  0.15636000  0.55136000  1
  C  C197  1  0.45520000  0.15070000  0.13500000  1
  C  C198  1  0.94661000  0.14531000  0.34261000  1
  C  C199  1  0.15070000  0.13500000  0.45520000  1
  C  C200  1  0.26340000  0.11570000  0.49710000  1
  C  C201  1  0.00950000  0.11400000  0.21290000  1
  C  C202  1  0.51149000  0.11219000  0.17479000  1
  C  C203  1  0.22844000  0.10294000  0.44924000  1
  C  C204  1  0.96227000  0.09757000  0.28487000  1
  C  C205  1  0.08073000  0.08603000  0.71983000  1
  C  C206  1  0.71983000  0.08073000  0.08603000  1
  C  C207  1  0.08043000  0.08043000  0.08043000  1
  C  C208  1  0.69570000  0.06700000  0.96660000  1
  C  C209  1  0.03305000  0.06645000  0.16205000  1
  C  C210  1  0.65739000  0.05339000  0.85469000  1
  C  C211  1  0.72056000  0.05136000  0.65636000  1
  C  C212  1  0.27156000  0.05076000  0.39706000  1
  C  C213  1  0.74329000  0.04709000  0.01599000  1
  C  C214  1  0.34930000  0.04480000  0.36500000  1
  C  C215  1  0.71513000  0.03773000  0.90243000  1
  C  C216  1  0.93300000  0.03340000  0.30430000  1
  C  C217  1  0.16205000  0.03305000  0.06645000  1
  C  C218  1  0.04709000  0.01599000  0.74329000  1
  C  C219  1  0.61219000  0.01149000  0.67479000  1
  C  C220  1  0.21290000  0.00950000  0.11400000  1
  C  C221  1  0.18726000  0.00486000  0.00016000  1
  C  C222  1  0.23660000  0.00290000  0.38430000  1
  C  C223  1  0.00486000  0.00016000  0.18726000  1
  N  N224  1  0.35356000  0.94076000  0.31556000  1
  N  N225  1  0.44076000  0.85356000  0.81556000  1
  N  N226  1  0.85356000  0.81556000  0.44076000  1
  N  N227  1  0.05924000  0.68444000  0.64644000  1
  N  N228  1  0.68444000  0.64644000  0.05924000  1
  N  N229  1  0.18444000  0.55924000  0.14644000  1
  N  N230  1  0.81556000  0.44076000  0.85356000  1
  N  N231  1  0.31556000  0.35356000  0.94076000  1
  N  N232  1  0.94076000  0.31556000  0.35356000  1
  N  N233  1  0.14644000  0.18444000  0.55924000  1
  N  N234  1  0.55924000  0.14644000  0.18444000  1
  N  N235  1  0.64644000  0.05924000  0.68444000  1
  Cl  Cl236  1  0.13030000  0.98501000  0.60856000  1
  Cl  Cl237  1  0.86860000  0.96831000  0.06549000  1
  Cl  Cl238  1  0.81002000  0.96011000  0.80218000  1
  Cl  Cl239  1  0.03169000  0.93451000  0.13140000  1
  Cl  Cl240  1  0.36970000  0.89144000  0.51499000  1
  Cl  Cl241  1  0.39144000  0.86970000  0.01499000  1
  Cl  Cl242  1  0.06549000  0.86860000  0.96831000  1
  Cl  Cl243  1  0.80218000  0.81002000  0.96011000  1
  Cl  Cl244  1  0.96011000  0.80218000  0.81002000  1
  Cl  Cl245  1  0.68998000  0.69782000  0.53989000  1
  Cl  Cl246  1  0.53989000  0.68998000  0.69782000  1
  Cl  Cl247  1  0.53169000  0.63140000  0.43451000  1
  Cl  Cl248  1  0.48501000  0.63030000  0.10856000  1
  Cl  Cl249  1  0.98501000  0.60856000  0.13030000  1
  Cl  Cl250  1  0.36860000  0.56549000  0.46831000  1
  Cl  Cl251  1  0.69782000  0.53989000  0.68998000  1
  Cl  Cl252  1  0.43451000  0.53169000  0.63140000  1
  Cl  Cl253  1  0.89144000  0.51499000  0.36970000  1
  Cl  Cl254  1  0.10856000  0.48501000  0.63030000  1
  Cl  Cl255  1  0.56549000  0.46831000  0.36860000  1
  Cl  Cl256  1  0.30218000  0.46011000  0.31002000  1
  Cl  Cl257  1  0.63140000  0.43451000  0.53169000  1
  Cl  Cl258  1  0.01499000  0.39144000  0.86970000  1
  Cl  Cl259  1  0.51499000  0.36970000  0.89144000  1
  Cl  Cl260  1  0.46831000  0.36860000  0.56549000  1
  Cl  Cl261  1  0.46011000  0.31002000  0.30218000  1
  Cl  Cl262  1  0.31002000  0.30218000  0.46011000  1
  Cl  Cl263  1  0.03989000  0.19782000  0.18998000  1
  Cl  Cl264  1  0.19782000  0.18998000  0.03989000  1
  Cl  Cl265  1  0.93451000  0.13140000  0.03169000  1
  Cl  Cl266  1  0.60856000  0.13030000  0.98501000  1
  Cl  Cl267  1  0.63030000  0.10856000  0.48501000  1
  Cl  Cl268  1  0.96831000  0.06549000  0.86860000  1
  Cl  Cl269  1  0.18998000  0.03989000  0.19782000  1
  Cl  Cl270  1  0.13140000  0.03169000  0.93451000  1
  Cl  Cl271  1  0.86970000  0.01499000  0.39144000  1
  O  O272  1  0.38263000  0.99263000  0.12923000  1
  O  O273  1  0.30740000  0.96141000  0.85276000  1
  O  O274  1  0.85405000  0.92231000  0.27273000  1
  O  O275  1  0.34410000  0.88679000  0.19674000  1
  O  O276  1  0.49263000  0.88263000  0.62923000  1
  O  O277  1  0.00737000  0.87077000  0.61737000  1
  O  O278  1  0.27273000  0.85405000  0.92231000  1
  O  O279  1  0.96141000  0.85276000  0.30740000  1
  O  O280  1  0.38679000  0.84410000  0.69674000  1
  O  O281  1  0.46141000  0.80740000  0.35276000  1
  O  O282  1  0.11321000  0.80326000  0.65590000  1
  O  O283  1  0.35405000  0.77273000  0.42231000  1
  O  O284  1  0.07769000  0.72727000  0.14595000  1
  O  O285  1  0.84410000  0.69674000  0.38679000  1
  O  O286  1  0.14724000  0.69260000  0.03859000  1
  O  O287  1  0.80326000  0.65590000  0.11321000  1
  O  O288  1  0.19260000  0.64724000  0.53859000  1
  O  O289  1  0.57769000  0.64595000  0.22727000  1
  O  O290  1  0.88263000  0.62923000  0.49263000  1
  O  O291  1  0.87077000  0.61737000  0.00737000  1
  O  O292  1  0.30326000  0.61321000  0.15590000  1
  O  O293  1  0.22727000  0.57769000  0.64595000  1
  O  O294  1  0.64724000  0.53859000  0.19260000  1
  O  O295  1  0.37077000  0.50737000  0.11737000  1
  O  O296  1  0.62923000  0.49263000  0.88263000  1
  O  O297  1  0.35276000  0.46141000  0.80740000  1
  O  O298  1  0.77273000  0.42231000  0.35405000  1
  O  O299  1  0.69674000  0.38679000  0.84410000  1
  O  O300  1  0.12923000  0.38263000  0.99263000  1
  O  O301  1  0.11737000  0.37077000  0.50737000  1
  O  O302  1  0.42231000  0.35405000  0.77273000  1
  O  O303  1  0.80740000  0.35276000  0.46141000  1
  O  O304  1  0.19674000  0.34410000  0.88679000  1
  O  O305  1  0.85276000  0.30740000  0.96141000  1
  O  O306  1  0.15590000  0.30326000  0.61321000  1
  O  O307  1  0.92231000  0.27273000  0.85405000  1
  O  O308  1  0.64595000  0.22727000  0.57769000  1
  O  O309  1  0.88679000  0.19674000  0.34410000  1
  O  O310  1  0.53859000  0.19260000  0.64724000  1
  O  O311  1  0.61321000  0.15590000  0.30326000  1
  O  O312  1  0.03859000  0.14724000  0.69260000  1
  O  O313  1  0.72727000  0.14595000  0.07769000  1
  O  O314  1  0.99263000  0.12923000  0.38263000  1
  O  O315  1  0.50737000  0.11737000  0.37077000  1
  O  O316  1  0.65590000  0.11321000  0.80326000  1
  O  O317  1  0.14595000  0.07769000  0.72727000  1
  O  O318  1  0.69260000  0.03859000  0.14724000  1
  O  O319  1  0.61737000  0.00737000  0.87077000  1
