# generated using pymatgen
data_Fe13H216(C24O5)12
_symmetry_space_group_name_H-M   'P 1'
_cell_length_a   36.05040000
_cell_length_b   36.05040000
_cell_length_c   36.05040000
_cell_angle_alpha   60.00000000
_cell_angle_beta   60.00000000
_cell_angle_gamma   60.00000000
_symmetry_Int_Tables_number   1
_chemical_formula_structural   Fe13H216(C24O5)12
_chemical_formula_sum   'Fe26 H432 C576 O120'
_cell_volume   33129.52931005
_cell_formula_units_Z   2
loop_
 _symmetry_equiv_pos_site_id
 _symmetry_equiv_pos_as_xyz
  1  'x, y, z'
loop_
 _atom_site_type_symbol
 _atom_site_label
 _atom_site_symmetry_multiplicity
 _atom_site_fract_x
 _atom_site_fract_y
 _atom_site_fract_z
 _atom_site_occupancy
  Fe  Fe0  1  0.03907000  0.44127000  0.96093000  1
  Fe  Fe1  1  0.55873000  0.03907000  0.96093000  1
  Fe  Fe2  1  0.44127000  0.55873000  0.96093000  1
  Fe  Fe3  1  0.46093000  0.05873000  0.94127000  1
  Fe  Fe4  1  0.05873000  0.53907000  0.94127000  1
  Fe  Fe5  1  0.53907000  0.46093000  0.94127000  1
  Fe  Fe6  1  0.75000000  0.75000000  0.75000000  1
  Fe  Fe7  1  0.44127000  0.03907000  0.55873000  1
  Fe  Fe8  1  0.03907000  0.96093000  0.55873000  1
  Fe  Fe9  1  0.96093000  0.44127000  0.55873000  1
  Fe  Fe10  1  0.05873000  0.46093000  0.53907000  1
  Fe  Fe11  1  0.94127000  0.05873000  0.53907000  1
  Fe  Fe12  1  0.46093000  0.94127000  0.53907000  1
  Fe  Fe13  1  0.53907000  0.05873000  0.46093000  1
  Fe  Fe14  1  0.05873000  0.94127000  0.46093000  1
  Fe  Fe15  1  0.94127000  0.53907000  0.46093000  1
  Fe  Fe16  1  0.03907000  0.55873000  0.44127000  1
  Fe  Fe17  1  0.96093000  0.03907000  0.44127000  1
  Fe  Fe18  1  0.55873000  0.96093000  0.44127000  1
  Fe  Fe19  1  0.25000000  0.25000000  0.25000000  1
  Fe  Fe20  1  0.46093000  0.53907000  0.05873000  1
  Fe  Fe21  1  0.94127000  0.46093000  0.05873000  1
  Fe  Fe22  1  0.53907000  0.94127000  0.05873000  1
  Fe  Fe23  1  0.55873000  0.44127000  0.03907000  1
  Fe  Fe24  1  0.44127000  0.96093000  0.03907000  1
  Fe  Fe25  1  0.96093000  0.55873000  0.03907000  1
  H  H26  1  0.74280000  0.41920000  0.99700000  1
  H  H27  1  0.41920000  0.84100000  0.99700000  1
  H  H28  1  0.84100000  0.74280000  0.99700000  1
  H  H29  1  0.71540000  0.48240000  0.98680000  1
  H  H30  1  0.48240000  0.81540000  0.98680000  1
  H  H31  1  0.81540000  0.71540000  0.98680000  1
  H  H32  1  0.31880000  0.14800000  0.98600000  1
  H  H33  1  0.14800000  0.54720000  0.98600000  1
  H  H34  1  0.54720000  0.31880000  0.98600000  1
  H  H35  1  0.27920000  0.26480000  0.98360000  1
  H  H36  1  0.26480000  0.47240000  0.98360000  1
  H  H37  1  0.47240000  0.27920000  0.98360000  1
  H  H38  1  0.31540000  0.21540000  0.98240000  1
  H  H39  1  0.21540000  0.48680000  0.98240000  1
  H  H40  1  0.48680000  0.31540000  0.98240000  1
  H  H41  1  0.79250000  0.42050000  0.98010000  1
  H  H42  1  0.42050000  0.80690000  0.98010000  1
  H  H43  1  0.80690000  0.79250000  0.98010000  1
  H  H44  1  0.55840000  0.69560000  0.97940000  1
  H  H45  1  0.76660000  0.55840000  0.97940000  1
  H  H46  1  0.69560000  0.76660000  0.97940000  1
  H  H47  1  0.76480000  0.48360000  0.97240000  1
  H  H48  1  0.48360000  0.77920000  0.97240000  1
  H  H49  1  0.77920000  0.76480000  0.97240000  1
  H  H50  1  0.45880000  0.75400000  0.97200000  1
  H  H51  1  0.81520000  0.45880000  0.97200000  1
  H  H52  1  0.75400000  0.81520000  0.97200000  1
  H  H53  1  0.78530000  0.38850000  0.96730000  1
  H  H54  1  0.38850000  0.85890000  0.96730000  1
  H  H55  1  0.85890000  0.78530000  0.96730000  1
  H  H56  1  0.67560000  0.45440000  0.96620000  1
  H  H57  1  0.45440000  0.90380000  0.96620000  1
  H  H58  1  0.90380000  0.67560000  0.96620000  1
  H  H59  1  0.25400000  0.31520000  0.95880000  1
  H  H60  1  0.47200000  0.25400000  0.95880000  1
  H  H61  1  0.31520000  0.47200000  0.95880000  1
  H  H62  1  0.40380000  0.17560000  0.95440000  1
  H  H63  1  0.17560000  0.46620000  0.95440000  1
  H  H64  1  0.46620000  0.40380000  0.95440000  1
  H  H65  1  0.18120000  0.35200000  0.95280000  1
  H  H66  1  0.51400000  0.18120000  0.95280000  1
  H  H67  1  0.35200000  0.51400000  0.95280000  1
  H  H68  1  0.73340000  0.52060000  0.94160000  1
  H  H69  1  0.52060000  0.80440000  0.94160000  1
  H  H70  1  0.80440000  0.73340000  0.94160000  1
  H  H71  1  0.30690000  0.29250000  0.92050000  1
  H  H72  1  0.29250000  0.48010000  0.92050000  1
  H  H73  1  0.48010000  0.30690000  0.92050000  1
  H  H74  1  0.34100000  0.24280000  0.91920000  1
  H  H75  1  0.24280000  0.49700000  0.91920000  1
  H  H76  1  0.49700000  0.34100000  0.91920000  1
  H  H77  1  0.45440000  0.67560000  0.90380000  1
  H  H78  1  0.96620000  0.45440000  0.90380000  1
  H  H79  1  0.67560000  0.96620000  0.90380000  1
  H  H80  1  0.35890000  0.28530000  0.88850000  1
  H  H81  1  0.28530000  0.46730000  0.88850000  1
  H  H82  1  0.46730000  0.35890000  0.88850000  1
  H  H83  1  0.38850000  0.78530000  0.85890000  1
  H  H84  1  0.96730000  0.38850000  0.85890000  1
  H  H85  1  0.78530000  0.96730000  0.85890000  1
  H  H86  1  0.45280000  0.01400000  0.85200000  1
  H  H87  1  0.01400000  0.68120000  0.85200000  1
  H  H88  1  0.68120000  0.45280000  0.85200000  1
  H  H89  1  0.41920000  0.74280000  0.84100000  1
  H  H90  1  0.99700000  0.41920000  0.84100000  1
  H  H91  1  0.74280000  0.99700000  0.84100000  1
  H  H92  1  0.53380000  0.04560000  0.82440000  1
  H  H93  1  0.04560000  0.59620000  0.82440000  1
  H  H94  1  0.59620000  0.53380000  0.82440000  1
  H  H95  1  0.04720000  0.48600000  0.81880000  1
  H  H96  1  0.64800000  0.04720000  0.81880000  1
  H  H97  1  0.48600000  0.64800000  0.81880000  1
  H  H98  1  0.48240000  0.71540000  0.81540000  1
  H  H99  1  0.98680000  0.48240000  0.81540000  1
  H  H100  1  0.71540000  0.98680000  0.81540000  1
  H  H101  1  0.75400000  0.45880000  0.81520000  1
  H  H102  1  0.45880000  0.97200000  0.81520000  1
  H  H103  1  0.97200000  0.75400000  0.81520000  1
  H  H104  1  0.42050000  0.79250000  0.80690000  1
  H  H105  1  0.98010000  0.42050000  0.80690000  1
  H  H106  1  0.79250000  0.98010000  0.80690000  1
  H  H107  1  0.52060000  0.73340000  0.80440000  1
  H  H108  1  0.94160000  0.52060000  0.80440000  1
  H  H109  1  0.73340000  0.94160000  0.80440000  1
  H  H110  1  0.80690000  0.42050000  0.79250000  1
  H  H111  1  0.42050000  0.98010000  0.79250000  1
  H  H112  1  0.98010000  0.80690000  0.79250000  1
  H  H113  1  0.85890000  0.38850000  0.78530000  1
  H  H114  1  0.38850000  0.96730000  0.78530000  1
  H  H115  1  0.96730000  0.85890000  0.78530000  1
  H  H116  1  0.51320000  0.01760000  0.78460000  1
  H  H117  1  0.01760000  0.68460000  0.78460000  1
  H  H118  1  0.68460000  0.51320000  0.78460000  1
  H  H119  1  0.48360000  0.76480000  0.77920000  1
  H  H120  1  0.97240000  0.48360000  0.77920000  1
  H  H121  1  0.76480000  0.97240000  0.77920000  1
  H  H122  1  0.69560000  0.55840000  0.76660000  1
  H  H123  1  0.55840000  0.97940000  0.76660000  1
  H  H124  1  0.97940000  0.69560000  0.76660000  1
  H  H125  1  0.77920000  0.48360000  0.76480000  1
  H  H126  1  0.48360000  0.97240000  0.76480000  1
  H  H127  1  0.97240000  0.77920000  0.76480000  1
  H  H128  1  0.50300000  0.08080000  0.75720000  1
  H  H129  1  0.08080000  0.65900000  0.75720000  1
  H  H130  1  0.65900000  0.50300000  0.75720000  1
  H  H131  1  0.45880000  0.81520000  0.75400000  1
  H  H132  1  0.97200000  0.45880000  0.75400000  1
  H  H133  1  0.81520000  0.97200000  0.75400000  1
  H  H134  1  0.04120000  0.52800000  0.74600000  1
  H  H135  1  0.68480000  0.04120000  0.74600000  1
  H  H136  1  0.52800000  0.68480000  0.74600000  1
  H  H137  1  0.84100000  0.41920000  0.74280000  1
  H  H138  1  0.41920000  0.99700000  0.74280000  1
  H  H139  1  0.99700000  0.84100000  0.74280000  1
  H  H140  1  0.52760000  0.01640000  0.73520000  1
  H  H141  1  0.01640000  0.72080000  0.73520000  1
  H  H142  1  0.72080000  0.52760000  0.73520000  1
  H  H143  1  0.80440000  0.52060000  0.73340000  1
  H  H144  1  0.52060000  0.94160000  0.73340000  1
  H  H145  1  0.94160000  0.80440000  0.73340000  1
  H  H146  1  0.01640000  0.52760000  0.72080000  1
  H  H147  1  0.73520000  0.01640000  0.72080000  1
  H  H148  1  0.52760000  0.73520000  0.72080000  1
  H  H149  1  0.81540000  0.48240000  0.71540000  1
  H  H150  1  0.48240000  0.98680000  0.71540000  1
  H  H151  1  0.98680000  0.81540000  0.71540000  1
  H  H152  1  0.53270000  0.11150000  0.71470000  1
  H  H153  1  0.11150000  0.64110000  0.71470000  1
  H  H154  1  0.64110000  0.53270000  0.71470000  1
  H  H155  1  0.51990000  0.07950000  0.70750000  1
  H  H156  1  0.07950000  0.69310000  0.70750000  1
  H  H157  1  0.69310000  0.51990000  0.70750000  1
  H  H158  1  0.55840000  0.76660000  0.69560000  1
  H  H159  1  0.97940000  0.55840000  0.69560000  1
  H  H160  1  0.76660000  0.97940000  0.69560000  1
  H  H161  1  0.07950000  0.51990000  0.69310000  1
  H  H162  1  0.70750000  0.07950000  0.69310000  1
  H  H163  1  0.51990000  0.70750000  0.69310000  1
  H  H164  1  0.52800000  0.04120000  0.68480000  1
  H  H165  1  0.04120000  0.74600000  0.68480000  1
  H  H166  1  0.74600000  0.52800000  0.68480000  1
  H  H167  1  0.01760000  0.51320000  0.68460000  1
  H  H168  1  0.78460000  0.01760000  0.68460000  1
  H  H169  1  0.51320000  0.78460000  0.68460000  1
  H  H170  1  0.01400000  0.45280000  0.68120000  1
  H  H171  1  0.85200000  0.01400000  0.68120000  1
  H  H172  1  0.45280000  0.85200000  0.68120000  1
  H  H173  1  0.90380000  0.45440000  0.67560000  1
  H  H174  1  0.45440000  0.96620000  0.67560000  1
  H  H175  1  0.96620000  0.90380000  0.67560000  1
  H  H176  1  0.08080000  0.50300000  0.65900000  1
  H  H177  1  0.75720000  0.08080000  0.65900000  1
  H  H178  1  0.50300000  0.75720000  0.65900000  1
  H  H179  1  0.48600000  0.04720000  0.64800000  1
  H  H180  1  0.04720000  0.81880000  0.64800000  1
  H  H181  1  0.81880000  0.48600000  0.64800000  1
  H  H182  1  0.11150000  0.53270000  0.64110000  1
  H  H183  1  0.71470000  0.11150000  0.64110000  1
  H  H184  1  0.53270000  0.71470000  0.64110000  1
  H  H185  1  0.14110000  0.03270000  0.61150000  1
  H  H186  1  0.03270000  0.21470000  0.61150000  1
  H  H187  1  0.21470000  0.14110000  0.61150000  1
  H  H188  1  0.04560000  0.53380000  0.59620000  1
  H  H189  1  0.82440000  0.04560000  0.59620000  1
  H  H190  1  0.53380000  0.82440000  0.59620000  1
  H  H191  1  0.15900000  0.00300000  0.58080000  1
  H  H192  1  0.00300000  0.25720000  0.58080000  1
  H  H193  1  0.25720000  0.15900000  0.58080000  1
  H  H194  1  0.19310000  0.01990000  0.57950000  1
  H  H195  1  0.01990000  0.20750000  0.57950000  1
  H  H196  1  0.20750000  0.19310000  0.57950000  1
  H  H197  1  0.76660000  0.69560000  0.55840000  1
  H  H198  1  0.69560000  0.97940000  0.55840000  1
  H  H199  1  0.97940000  0.76660000  0.55840000  1
  H  H200  1  0.14800000  0.31880000  0.54720000  1
  H  H201  1  0.98600000  0.14800000  0.54720000  1
  H  H202  1  0.31880000  0.98600000  0.54720000  1
  H  H203  1  0.09620000  0.03380000  0.54560000  1
  H  H204  1  0.03380000  0.32440000  0.54560000  1
  H  H205  1  0.32440000  0.09620000  0.54560000  1
  H  H206  1  0.02800000  0.18480000  0.54120000  1
  H  H207  1  0.24600000  0.02800000  0.54120000  1
  H  H208  1  0.18480000  0.24600000  0.54120000  1
  H  H209  1  0.59620000  0.04560000  0.53380000  1
  H  H210  1  0.04560000  0.82440000  0.53380000  1
  H  H211  1  0.82440000  0.59620000  0.53380000  1
  H  H212  1  0.64110000  0.11150000  0.53270000  1
  H  H213  1  0.11150000  0.71470000  0.53270000  1
  H  H214  1  0.71470000  0.64110000  0.53270000  1
  H  H215  1  0.04120000  0.68480000  0.52800000  1
  H  H216  1  0.74600000  0.04120000  0.52800000  1
  H  H217  1  0.68480000  0.74600000  0.52800000  1
  H  H218  1  0.72080000  0.01640000  0.52760000  1
  H  H219  1  0.01640000  0.73520000  0.52760000  1
  H  H220  1  0.73520000  0.72080000  0.52760000  1
  H  H221  1  0.73340000  0.80440000  0.52060000  1
  H  H222  1  0.94160000  0.73340000  0.52060000  1
  H  H223  1  0.80440000  0.94160000  0.52060000  1
  H  H224  1  0.69310000  0.07950000  0.51990000  1
  H  H225  1  0.07950000  0.70750000  0.51990000  1
  H  H226  1  0.70750000  0.69310000  0.51990000  1
  H  H227  1  0.18460000  0.01320000  0.51760000  1
  H  H228  1  0.01320000  0.28460000  0.51760000  1
  H  H229  1  0.28460000  0.18460000  0.51760000  1
  H  H230  1  0.22080000  0.02760000  0.51640000  1
  H  H231  1  0.02760000  0.23520000  0.51640000  1
  H  H232  1  0.23520000  0.22080000  0.51640000  1
  H  H233  1  0.35200000  0.18120000  0.51400000  1
  H  H234  1  0.18120000  0.95280000  0.51400000  1
  H  H235  1  0.95280000  0.35200000  0.51400000  1
  H  H236  1  0.68460000  0.01760000  0.51320000  1
  H  H237  1  0.01760000  0.78460000  0.51320000  1
  H  H238  1  0.78460000  0.68460000  0.51320000  1
  H  H239  1  0.65900000  0.08080000  0.50300000  1
  H  H240  1  0.08080000  0.75720000  0.50300000  1
  H  H241  1  0.75720000  0.65900000  0.50300000  1
  H  H242  1  0.24280000  0.34100000  0.49700000  1
  H  H243  1  0.91920000  0.24280000  0.49700000  1
  H  H244  1  0.34100000  0.91920000  0.49700000  1
  H  H245  1  0.21540000  0.31540000  0.48680000  1
  H  H246  1  0.98240000  0.21540000  0.48680000  1
  H  H247  1  0.31540000  0.98240000  0.48680000  1
  H  H248  1  0.04720000  0.64800000  0.48600000  1
  H  H249  1  0.81880000  0.04720000  0.48600000  1
  H  H250  1  0.64800000  0.81880000  0.48600000  1
  H  H251  1  0.76480000  0.77920000  0.48360000  1
  H  H252  1  0.97240000  0.76480000  0.48360000  1
  H  H253  1  0.77920000  0.97240000  0.48360000  1
  H  H254  1  0.71540000  0.81540000  0.48240000  1
  H  H255  1  0.98680000  0.71540000  0.48240000  1
  H  H256  1  0.81540000  0.98680000  0.48240000  1
  H  H257  1  0.29250000  0.30690000  0.48010000  1
  H  H258  1  0.92050000  0.29250000  0.48010000  1
  H  H259  1  0.30690000  0.92050000  0.48010000  1
  H  H260  1  0.19560000  0.05840000  0.47940000  1
  H  H261  1  0.05840000  0.26660000  0.47940000  1
  H  H262  1  0.26660000  0.19560000  0.47940000  1
  H  H263  1  0.26480000  0.27920000  0.47240000  1
  H  H264  1  0.98360000  0.26480000  0.47240000  1
  H  H265  1  0.27920000  0.98360000  0.47240000  1
  H  H266  1  0.31520000  0.25400000  0.47200000  1
  H  H267  1  0.25400000  0.95880000  0.47200000  1
  H  H268  1  0.95880000  0.31520000  0.47200000  1
  H  H269  1  0.28530000  0.35890000  0.46730000  1
  H  H270  1  0.88850000  0.28530000  0.46730000  1
  H  H271  1  0.35890000  0.88850000  0.46730000  1
  H  H272  1  0.17560000  0.40380000  0.46620000  1
  H  H273  1  0.95440000  0.17560000  0.46620000  1
  H  H274  1  0.40380000  0.95440000  0.46620000  1
  H  H275  1  0.81520000  0.75400000  0.45880000  1
  H  H276  1  0.75400000  0.97200000  0.45880000  1
  H  H277  1  0.97200000  0.81520000  0.45880000  1
  H  H278  1  0.67560000  0.90380000  0.45440000  1
  H  H279  1  0.96620000  0.67560000  0.45440000  1
  H  H280  1  0.90380000  0.96620000  0.45440000  1
  H  H281  1  0.68120000  0.01400000  0.45280000  1
  H  H282  1  0.01400000  0.85200000  0.45280000  1
  H  H283  1  0.85200000  0.68120000  0.45280000  1
  H  H284  1  0.02060000  0.23340000  0.44160000  1
  H  H285  1  0.30440000  0.02060000  0.44160000  1
  H  H286  1  0.23340000  0.30440000  0.44160000  1
  H  H287  1  0.79250000  0.80690000  0.42050000  1
  H  H288  1  0.98010000  0.79250000  0.42050000  1
  H  H289  1  0.80690000  0.98010000  0.42050000  1
  H  H290  1  0.74280000  0.84100000  0.41920000  1
  H  H291  1  0.99700000  0.74280000  0.41920000  1
  H  H292  1  0.84100000  0.99700000  0.41920000  1
  H  H293  1  0.46620000  0.17560000  0.40380000  1
  H  H294  1  0.17560000  0.95440000  0.40380000  1
  H  H295  1  0.95440000  0.46620000  0.40380000  1
  H  H296  1  0.78530000  0.85890000  0.38850000  1
  H  H297  1  0.96730000  0.78530000  0.38850000  1
  H  H298  1  0.85890000  0.96730000  0.38850000  1
  H  H299  1  0.46730000  0.28530000  0.35890000  1
  H  H300  1  0.28530000  0.88850000  0.35890000  1
  H  H301  1  0.88850000  0.46730000  0.35890000  1
  H  H302  1  0.18120000  0.51400000  0.35200000  1
  H  H303  1  0.95280000  0.18120000  0.35200000  1
  H  H304  1  0.51400000  0.95280000  0.35200000  1
  H  H305  1  0.49700000  0.24280000  0.34100000  1
  H  H306  1  0.24280000  0.91920000  0.34100000  1
  H  H307  1  0.91920000  0.49700000  0.34100000  1
  H  H308  1  0.03380000  0.09620000  0.32440000  1
  H  H309  1  0.54560000  0.03380000  0.32440000  1
  H  H310  1  0.09620000  0.54560000  0.32440000  1
  H  H311  1  0.54720000  0.14800000  0.31880000  1
  H  H312  1  0.14800000  0.98600000  0.31880000  1
  H  H313  1  0.98600000  0.54720000  0.31880000  1
  H  H314  1  0.48680000  0.21540000  0.31540000  1
  H  H315  1  0.21540000  0.98240000  0.31540000  1
  H  H316  1  0.98240000  0.48680000  0.31540000  1
  H  H317  1  0.25400000  0.47200000  0.31520000  1
  H  H318  1  0.95880000  0.25400000  0.31520000  1
  H  H319  1  0.47200000  0.95880000  0.31520000  1
  H  H320  1  0.48010000  0.29250000  0.30690000  1
  H  H321  1  0.29250000  0.92050000  0.30690000  1
  H  H322  1  0.92050000  0.48010000  0.30690000  1
  H  H323  1  0.23340000  0.02060000  0.30440000  1
  H  H324  1  0.02060000  0.44160000  0.30440000  1
  H  H325  1  0.44160000  0.23340000  0.30440000  1
  H  H326  1  0.30690000  0.48010000  0.29250000  1
  H  H327  1  0.92050000  0.30690000  0.29250000  1
  H  H328  1  0.48010000  0.92050000  0.29250000  1
  H  H329  1  0.35890000  0.46730000  0.28530000  1
  H  H330  1  0.88850000  0.35890000  0.28530000  1
  H  H331  1  0.46730000  0.88850000  0.28530000  1
  H  H332  1  0.01320000  0.18460000  0.28460000  1
  H  H333  1  0.51760000  0.01320000  0.28460000  1
  H  H334  1  0.18460000  0.51760000  0.28460000  1
  H  H335  1  0.47240000  0.26480000  0.27920000  1
  H  H336  1  0.26480000  0.98360000  0.27920000  1
  H  H337  1  0.98360000  0.47240000  0.27920000  1
  H  H338  1  0.05840000  0.19560000  0.26660000  1
  H  H339  1  0.47940000  0.05840000  0.26660000  1
  H  H340  1  0.19560000  0.47940000  0.26660000  1
  H  H341  1  0.27920000  0.47240000  0.26480000  1
  H  H342  1  0.98360000  0.27920000  0.26480000  1
  H  H343  1  0.47240000  0.98360000  0.26480000  1
  H  H344  1  0.00300000  0.15900000  0.25720000  1
  H  H345  1  0.58080000  0.00300000  0.25720000  1
  H  H346  1  0.15900000  0.58080000  0.25720000  1
  H  H347  1  0.47200000  0.31520000  0.25400000  1
  H  H348  1  0.31520000  0.95880000  0.25400000  1
  H  H349  1  0.95880000  0.47200000  0.25400000  1
  H  H350  1  0.18480000  0.02800000  0.24600000  1
  H  H351  1  0.02800000  0.54120000  0.24600000  1
  H  H352  1  0.54120000  0.18480000  0.24600000  1
  H  H353  1  0.34100000  0.49700000  0.24280000  1
  H  H354  1  0.91920000  0.34100000  0.24280000  1
  H  H355  1  0.49700000  0.91920000  0.24280000  1
  H  H356  1  0.02760000  0.22080000  0.23520000  1
  H  H357  1  0.51640000  0.02760000  0.23520000  1
  H  H358  1  0.22080000  0.51640000  0.23520000  1
  H  H359  1  0.02060000  0.30440000  0.23340000  1
  H  H360  1  0.44160000  0.02060000  0.23340000  1
  H  H361  1  0.30440000  0.44160000  0.23340000  1
  H  H362  1  0.23520000  0.02760000  0.22080000  1
  H  H363  1  0.02760000  0.51640000  0.22080000  1
  H  H364  1  0.51640000  0.23520000  0.22080000  1
  H  H365  1  0.31540000  0.48680000  0.21540000  1
  H  H366  1  0.98240000  0.31540000  0.21540000  1
  H  H367  1  0.48680000  0.98240000  0.21540000  1
  H  H368  1  0.03270000  0.14110000  0.21470000  1
  H  H369  1  0.61150000  0.03270000  0.21470000  1
  H  H370  1  0.14110000  0.61150000  0.21470000  1
  H  H371  1  0.01990000  0.19310000  0.20750000  1
  H  H372  1  0.57950000  0.01990000  0.20750000  1
  H  H373  1  0.19310000  0.57950000  0.20750000  1
  H  H374  1  0.26660000  0.05840000  0.19560000  1
  H  H375  1  0.05840000  0.47940000  0.19560000  1
  H  H376  1  0.47940000  0.26660000  0.19560000  1
  H  H377  1  0.20750000  0.01990000  0.19310000  1
  H  H378  1  0.01990000  0.57950000  0.19310000  1
  H  H379  1  0.57950000  0.20750000  0.19310000  1
  H  H380  1  0.02800000  0.24600000  0.18480000  1
  H  H381  1  0.54120000  0.02800000  0.18480000  1
  H  H382  1  0.24600000  0.54120000  0.18480000  1
  H  H383  1  0.28460000  0.01320000  0.18460000  1
  H  H384  1  0.01320000  0.51760000  0.18460000  1
  H  H385  1  0.51760000  0.28460000  0.18460000  1
  H  H386  1  0.51400000  0.35200000  0.18120000  1
  H  H387  1  0.35200000  0.95280000  0.18120000  1
  H  H388  1  0.95280000  0.51400000  0.18120000  1
  H  H389  1  0.40380000  0.46620000  0.17560000  1
  H  H390  1  0.95440000  0.40380000  0.17560000  1
  H  H391  1  0.46620000  0.95440000  0.17560000  1
  H  H392  1  0.25720000  0.00300000  0.15900000  1
  H  H393  1  0.00300000  0.58080000  0.15900000  1
  H  H394  1  0.58080000  0.25720000  0.15900000  1
  H  H395  1  0.31880000  0.54720000  0.14800000  1
  H  H396  1  0.98600000  0.31880000  0.14800000  1
  H  H397  1  0.54720000  0.98600000  0.14800000  1
  H  H398  1  0.21470000  0.03270000  0.14110000  1
  H  H399  1  0.03270000  0.61150000  0.14110000  1
  H  H400  1  0.61150000  0.21470000  0.14110000  1
  H  H401  1  0.53270000  0.64110000  0.11150000  1
  H  H402  1  0.71470000  0.53270000  0.11150000  1
  H  H403  1  0.64110000  0.71470000  0.11150000  1
  H  H404  1  0.32440000  0.03380000  0.09620000  1
  H  H405  1  0.03380000  0.54560000  0.09620000  1
  H  H406  1  0.54560000  0.32440000  0.09620000  1
  H  H407  1  0.50300000  0.65900000  0.08080000  1
  H  H408  1  0.75720000  0.50300000  0.08080000  1
  H  H409  1  0.65900000  0.75720000  0.08080000  1
  H  H410  1  0.51990000  0.69310000  0.07950000  1
  H  H411  1  0.70750000  0.51990000  0.07950000  1
  H  H412  1  0.69310000  0.70750000  0.07950000  1
  H  H413  1  0.19560000  0.26660000  0.05840000  1
  H  H414  1  0.47940000  0.19560000  0.05840000  1
  H  H415  1  0.26660000  0.47940000  0.05840000  1
  H  H416  1  0.64800000  0.48600000  0.04720000  1
  H  H417  1  0.48600000  0.81880000  0.04720000  1
  H  H418  1  0.81880000  0.64800000  0.04720000  1
  H  H419  1  0.53380000  0.59620000  0.04560000  1
  H  H420  1  0.82440000  0.53380000  0.04560000  1
  H  H421  1  0.59620000  0.82440000  0.04560000  1
  H  H422  1  0.68480000  0.52800000  0.04120000  1
  H  H423  1  0.52800000  0.74600000  0.04120000  1
  H  H424  1  0.74600000  0.68480000  0.04120000  1
  H  H425  1  0.09620000  0.32440000  0.03380000  1
  H  H426  1  0.54560000  0.09620000  0.03380000  1
  H  H427  1  0.32440000  0.54560000  0.03380000  1
  H  H428  1  0.14110000  0.21470000  0.03270000  1
  H  H429  1  0.61150000  0.14110000  0.03270000  1
  H  H430  1  0.21470000  0.61150000  0.03270000  1
  H  H431  1  0.24600000  0.18480000  0.02800000  1
  H  H432  1  0.18480000  0.54120000  0.02800000  1
  H  H433  1  0.54120000  0.24600000  0.02800000  1
  H  H434  1  0.22080000  0.23520000  0.02760000  1
  H  H435  1  0.51640000  0.22080000  0.02760000  1
  H  H436  1  0.23520000  0.51640000  0.02760000  1
  H  H437  1  0.30440000  0.23340000  0.02060000  1
  H  H438  1  0.23340000  0.44160000  0.02060000  1
  H  H439  1  0.44160000  0.30440000  0.02060000  1
  H  H440  1  0.19310000  0.20750000  0.01990000  1
  H  H441  1  0.57950000  0.19310000  0.01990000  1
  H  H442  1  0.20750000  0.57950000  0.01990000  1
  H  H443  1  0.51320000  0.68460000  0.01760000  1
  H  H444  1  0.78460000  0.51320000  0.01760000  1
  H  H445  1  0.68460000  0.78460000  0.01760000  1
  H  H446  1  0.52760000  0.72080000  0.01640000  1
  H  H447  1  0.73520000  0.52760000  0.01640000  1
  H  H448  1  0.72080000  0.73520000  0.01640000  1
  H  H449  1  0.45280000  0.68120000  0.01400000  1
  H  H450  1  0.85200000  0.45280000  0.01400000  1
  H  H451  1  0.68120000  0.85200000  0.01400000  1
  H  H452  1  0.18460000  0.28460000  0.01320000  1
  H  H453  1  0.51760000  0.18460000  0.01320000  1
  H  H454  1  0.28460000  0.51760000  0.01320000  1
  H  H455  1  0.15900000  0.25720000  0.00300000  1
  H  H456  1  0.58080000  0.15900000  0.00300000  1
  H  H457  1  0.25720000  0.58080000  0.00300000  1
  C  C458  1  0.30774000  0.24230000  0.98890000  1
  C  C459  1  0.24230000  0.46106000  0.98890000  1
  C  C460  1  0.46106000  0.30774000  0.98890000  1
  C  C461  1  0.45361000  0.69509000  0.98343000  1
  C  C462  1  0.86787000  0.45361000  0.98343000  1
  C  C463  1  0.69509000  0.86787000  0.98343000  1
  C  C464  1  0.44470000  0.63056000  0.98028000  1
  C  C465  1  0.94446000  0.44470000  0.98028000  1
  C  C466  1  0.63056000  0.94446000  0.98028000  1
  C  C467  1  0.77196000  0.41768000  0.97222000  1
  C  C468  1  0.41768000  0.83814000  0.97222000  1
  C  C469  1  0.83814000  0.77196000  0.97222000  1
  C  C470  1  0.45342000  0.67142000  0.96270000  1
  C  C471  1  0.91246000  0.45342000  0.96270000  1
  C  C472  1  0.67142000  0.91246000  0.96270000  1
  C  C473  1  0.74230000  0.48890000  0.96106000  1
  C  C474  1  0.48890000  0.80774000  0.96106000  1
  C  C475  1  0.80774000  0.74230000  0.96106000  1
  C  C476  1  0.45495000  0.73917000  0.95927000  1
  C  C477  1  0.84661000  0.45495000  0.95927000  1
  C  C478  1  0.73917000  0.84661000  0.95927000  1
  C  C479  1  0.39347000  0.23591000  0.95583000  1
  C  C480  1  0.23591000  0.41479000  0.95583000  1
  C  C481  1  0.41479000  0.39347000  0.95583000  1
  C  C482  1  0.23917000  0.34661000  0.95495000  1
  C  C483  1  0.45927000  0.23917000  0.95495000  1
  C  C484  1  0.34661000  0.45927000  0.95495000  1
  C  C485  1  0.41781000  0.19183000  0.95455000  1
  C  C486  1  0.19183000  0.43581000  0.95455000  1
  C  C487  1  0.43581000  0.41781000  0.95455000  1
  C  C488  1  0.34972000  0.26486000  0.95452000  1
  C  C489  1  0.26486000  0.43090000  0.95452000  1
  C  C490  1  0.43090000  0.34972000  0.95452000  1
  C  C491  1  0.19509000  0.36787000  0.95361000  1
  C  C492  1  0.48343000  0.19509000  0.95361000  1
  C  C493  1  0.36787000  0.48343000  0.95361000  1
  C  C494  1  0.17142000  0.41246000  0.95342000  1
  C  C495  1  0.46270000  0.17142000  0.95342000  1
  C  C496  1  0.41246000  0.46270000  0.95342000  1
  C  C497  1  0.26153000  0.37209000  0.95107000  1
  C  C498  1  0.41531000  0.26153000  0.95107000  1
  C  C499  1  0.37209000  0.41531000  0.95107000  1
  C  C500  1  0.30565000  0.36095000  0.94851000  1
  C  C501  1  0.38489000  0.30565000  0.94851000  1
  C  C502  1  0.36095000  0.38489000  0.94851000  1
  C  C503  1  0.34587000  0.30857000  0.94645000  1
  C  C504  1  0.30857000  0.39911000  0.94645000  1
  C  C505  1  0.39911000  0.34587000  0.94645000  1
  C  C506  1  0.13056000  0.44446000  0.94470000  1
  C  C507  1  0.48028000  0.13056000  0.94470000  1
  C  C508  1  0.44446000  0.48028000  0.94470000  1
  C  C509  1  0.63056000  0.44470000  0.94446000  1
  C  C510  1  0.44470000  0.98028000  0.94446000  1
  C  C511  1  0.98028000  0.63056000  0.94446000  1
  C  C512  1  0.69183000  0.45455000  0.93581000  1
  C  C513  1  0.45455000  0.91781000  0.93581000  1
  C  C514  1  0.91781000  0.69183000  0.93581000  1
  C  C515  1  0.76486000  0.45452000  0.93090000  1
  C  C516  1  0.45452000  0.84972000  0.93090000  1
  C  C517  1  0.84972000  0.76486000  0.93090000  1
  C  C518  1  0.45455000  0.69183000  0.91781000  1
  C  C519  1  0.93581000  0.45455000  0.91781000  1
  C  C520  1  0.69183000  0.93581000  0.91781000  1
  C  C521  1  0.33814000  0.27196000  0.91768000  1
  C  C522  1  0.27196000  0.47222000  0.91768000  1
  C  C523  1  0.47222000  0.33814000  0.91768000  1
  C  C524  1  0.45107000  0.76153000  0.91531000  1
  C  C525  1  0.87209000  0.45107000  0.91531000  1
  C  C526  1  0.76153000  0.87209000  0.91531000  1
  C  C527  1  0.73591000  0.45583000  0.91479000  1
  C  C528  1  0.45583000  0.89347000  0.91479000  1
  C  C529  1  0.89347000  0.73591000  0.91479000  1
  C  C530  1  0.67142000  0.45342000  0.91246000  1
  C  C531  1  0.45342000  0.96270000  0.91246000  1
  C  C532  1  0.96270000  0.67142000  0.91246000  1
  C  C533  1  0.80857000  0.44645000  0.89911000  1
  C  C534  1  0.44645000  0.84587000  0.89911000  1
  C  C535  1  0.84587000  0.80857000  0.89911000  1
  C  C536  1  0.45583000  0.73591000  0.89347000  1
  C  C537  1  0.91479000  0.45583000  0.89347000  1
  C  C538  1  0.73591000  0.91479000  0.89347000  1
  C  C539  1  0.44851000  0.80565000  0.88489000  1
  C  C540  1  0.86095000  0.44851000  0.88489000  1
  C  C541  1  0.80565000  0.86095000  0.88489000  1
  C  C542  1  0.76153000  0.45107000  0.87209000  1
  C  C543  1  0.45107000  0.91531000  0.87209000  1
  C  C544  1  0.91531000  0.76153000  0.87209000  1
  C  C545  1  0.05530000  0.51972000  0.86944000  1
  C  C546  1  0.55554000  0.05530000  0.86944000  1
  C  C547  1  0.51972000  0.55554000  0.86944000  1
  C  C548  1  0.69509000  0.45361000  0.86787000  1
  C  C549  1  0.45361000  0.98343000  0.86787000  1
  C  C550  1  0.98343000  0.69509000  0.86787000  1
  C  C551  1  0.80565000  0.44851000  0.86095000  1
  C  C552  1  0.44851000  0.88489000  0.86095000  1
  C  C553  1  0.88489000  0.80565000  0.86095000  1
  C  C554  1  0.45452000  0.76486000  0.84972000  1
  C  C555  1  0.93090000  0.45452000  0.84972000  1
  C  C556  1  0.76486000  0.93090000  0.84972000  1
  C  C557  1  0.73917000  0.45495000  0.84661000  1
  C  C558  1  0.45495000  0.95927000  0.84661000  1
  C  C559  1  0.95927000  0.73917000  0.84661000  1
  C  C560  1  0.44645000  0.80857000  0.84587000  1
  C  C561  1  0.89911000  0.44645000  0.84587000  1
  C  C562  1  0.80857000  0.89911000  0.84587000  1
  C  C563  1  0.41768000  0.77196000  0.83814000  1
  C  C564  1  0.97222000  0.41768000  0.83814000  1
  C  C565  1  0.77196000  0.97222000  0.83814000  1
  C  C566  1  0.04658000  0.53730000  0.82858000  1
  C  C567  1  0.58754000  0.04658000  0.82858000  1
  C  C568  1  0.53730000  0.58754000  0.82858000  1
  C  C569  1  0.84587000  0.44645000  0.80857000  1
  C  C570  1  0.44645000  0.89911000  0.80857000  1
  C  C571  1  0.89911000  0.84587000  0.80857000  1
  C  C572  1  0.56419000  0.04545000  0.80817000  1
  C  C573  1  0.04545000  0.58219000  0.80817000  1
  C  C574  1  0.58219000  0.56419000  0.80817000  1
  C  C575  1  0.48890000  0.74230000  0.80774000  1
  C  C576  1  0.96106000  0.48890000  0.80774000  1
  C  C577  1  0.74230000  0.96106000  0.80774000  1
  C  C578  1  0.44851000  0.86095000  0.80565000  1
  C  C579  1  0.88489000  0.44851000  0.80565000  1
  C  C580  1  0.86095000  0.88489000  0.80565000  1
  C  C581  1  0.04639000  0.51657000  0.80491000  1
  C  C582  1  0.63213000  0.04639000  0.80491000  1
  C  C583  1  0.51657000  0.63213000  0.80491000  1
  C  C584  1  0.83814000  0.41768000  0.77196000  1
  C  C585  1  0.41768000  0.97222000  0.77196000  1
  C  C586  1  0.97222000  0.83814000  0.77196000  1
  C  C587  1  0.84972000  0.45452000  0.76486000  1
  C  C588  1  0.45452000  0.93090000  0.76486000  1
  C  C589  1  0.93090000  0.84972000  0.76486000  1
  C  C590  1  0.58521000  0.04417000  0.76409000  1
  C  C591  1  0.04417000  0.60653000  0.76409000  1
  C  C592  1  0.60653000  0.58521000  0.76409000  1
  C  C593  1  0.45107000  0.87209000  0.76153000  1
  C  C594  1  0.91531000  0.45107000  0.76153000  1
  C  C595  1  0.87209000  0.91531000  0.76153000  1
  C  C596  1  0.04505000  0.54073000  0.76083000  1
  C  C597  1  0.65339000  0.04505000  0.76083000  1
  C  C598  1  0.54073000  0.65339000  0.76083000  1
  C  C599  1  0.53894000  0.01110000  0.75770000  1
  C  C600  1  0.01110000  0.69226000  0.75770000  1
  C  C601  1  0.69226000  0.53894000  0.75770000  1
  C  C602  1  0.80774000  0.48890000  0.74230000  1
  C  C603  1  0.48890000  0.96106000  0.74230000  1
  C  C604  1  0.96106000  0.80774000  0.74230000  1
  C  C605  1  0.45495000  0.84661000  0.73917000  1
  C  C606  1  0.95927000  0.45495000  0.73917000  1
  C  C607  1  0.84661000  0.95927000  0.73917000  1
  C  C608  1  0.04893000  0.58469000  0.73847000  1
  C  C609  1  0.62791000  0.04893000  0.73847000  1
  C  C610  1  0.58469000  0.62791000  0.73847000  1
  C  C611  1  0.89347000  0.45583000  0.73591000  1
  C  C612  1  0.45583000  0.91479000  0.73591000  1
  C  C613  1  0.91479000  0.89347000  0.73591000  1
  C  C614  1  0.56910000  0.04548000  0.73514000  1
  C  C615  1  0.04548000  0.65028000  0.73514000  1
  C  C616  1  0.65028000  0.56910000  0.73514000  1
  C  C617  1  0.52778000  0.08232000  0.72804000  1
  C  C618  1  0.08232000  0.66186000  0.72804000  1
  C  C619  1  0.66186000  0.52778000  0.72804000  1
  C  C620  1  0.45361000  0.86787000  0.69509000  1
  C  C621  1  0.98343000  0.45361000  0.69509000  1
  C  C622  1  0.86787000  0.98343000  0.69509000  1
  C  C623  1  0.05149000  0.61511000  0.69435000  1
  C  C624  1  0.63905000  0.05149000  0.69435000  1
  C  C625  1  0.61511000  0.63905000  0.69435000  1
  C  C626  1  0.01110000  0.53894000  0.69226000  1
  C  C627  1  0.75770000  0.01110000  0.69226000  1
  C  C628  1  0.53894000  0.75770000  0.69226000  1
  C  C629  1  0.91781000  0.45455000  0.69183000  1
  C  C630  1  0.45455000  0.93581000  0.69183000  1
  C  C631  1  0.93581000  0.91781000  0.69183000  1
  C  C632  1  0.60089000  0.05355000  0.69143000  1
  C  C633  1  0.05355000  0.65413000  0.69143000  1
  C  C634  1  0.65413000  0.60089000  0.69143000  1
  C  C635  1  0.45342000  0.91246000  0.67142000  1
  C  C636  1  0.96270000  0.45342000  0.67142000  1
  C  C637  1  0.91246000  0.96270000  0.67142000  1
  C  C638  1  0.08232000  0.52778000  0.66186000  1
  C  C639  1  0.72804000  0.08232000  0.66186000  1
  C  C640  1  0.52778000  0.72804000  0.66186000  1
  C  C641  1  0.05355000  0.60089000  0.65413000  1
  C  C642  1  0.69143000  0.05355000  0.65413000  1
  C  C643  1  0.60089000  0.69143000  0.65413000  1
  C  C644  1  0.54073000  0.04505000  0.65339000  1
  C  C645  1  0.04505000  0.76083000  0.65339000  1
  C  C646  1  0.76083000  0.54073000  0.65339000  1
  C  C647  1  0.04548000  0.56910000  0.65028000  1
  C  C648  1  0.73514000  0.04548000  0.65028000  1
  C  C649  1  0.56910000  0.73514000  0.65028000  1
  C  C650  1  0.61511000  0.05149000  0.63905000  1
  C  C651  1  0.05149000  0.69435000  0.63905000  1
  C  C652  1  0.69435000  0.61511000  0.63905000  1
  C  C653  1  0.51657000  0.04639000  0.63213000  1
  C  C654  1  0.04639000  0.80491000  0.63213000  1
  C  C655  1  0.80491000  0.51657000  0.63213000  1
  C  C656  1  0.44470000  0.94446000  0.63056000  1
  C  C657  1  0.98028000  0.44470000  0.63056000  1
  C  C658  1  0.94446000  0.98028000  0.63056000  1
  C  C659  1  0.58469000  0.04893000  0.62791000  1
  C  C660  1  0.04893000  0.73847000  0.62791000  1
  C  C661  1  0.73847000  0.58469000  0.62791000  1
  C  C662  1  0.05149000  0.63905000  0.61511000  1
  C  C663  1  0.69435000  0.05149000  0.61511000  1
  C  C664  1  0.63905000  0.69435000  0.61511000  1
  C  C665  1  0.04417000  0.58521000  0.60653000  1
  C  C666  1  0.76409000  0.04417000  0.60653000  1
  C  C667  1  0.58521000  0.76409000  0.60653000  1
  C  C668  1  0.65413000  0.05355000  0.60089000  1
  C  C669  1  0.05355000  0.69143000  0.60089000  1
  C  C670  1  0.69143000  0.65413000  0.60089000  1
  C  C671  1  0.53730000  0.04658000  0.58754000  1
  C  C672  1  0.04658000  0.82858000  0.58754000  1
  C  C673  1  0.82858000  0.53730000  0.58754000  1
  C  C674  1  0.60653000  0.04417000  0.58521000  1
  C  C675  1  0.04417000  0.76409000  0.58521000  1
  C  C676  1  0.76409000  0.60653000  0.58521000  1
  C  C677  1  0.04893000  0.62791000  0.58469000  1
  C  C678  1  0.73847000  0.04893000  0.58469000  1
  C  C679  1  0.62791000  0.73847000  0.58469000  1
  C  C680  1  0.16186000  0.02778000  0.58232000  1
  C  C681  1  0.02778000  0.22804000  0.58232000  1
  C  C682  1  0.22804000  0.16186000  0.58232000  1
  C  C683  1  0.04545000  0.56419000  0.58219000  1
  C  C684  1  0.80817000  0.04545000  0.58219000  1
  C  C685  1  0.56419000  0.80817000  0.58219000  1
  C  C686  1  0.65028000  0.04548000  0.56910000  1
  C  C687  1  0.04548000  0.73514000  0.56910000  1
  C  C688  1  0.73514000  0.65028000  0.56910000  1
  C  C689  1  0.58219000  0.04545000  0.56419000  1
  C  C690  1  0.04545000  0.80817000  0.56419000  1
  C  C691  1  0.80817000  0.58219000  0.56419000  1
  C  C692  1  0.51972000  0.05530000  0.55554000  1
  C  C693  1  0.05530000  0.86944000  0.55554000  1
  C  C694  1  0.86944000  0.51972000  0.55554000  1
  C  C695  1  0.01972000  0.05554000  0.55530000  1
  C  C696  1  0.36944000  0.01972000  0.55530000  1
  C  C697  1  0.05554000  0.36944000  0.55530000  1
  C  C698  1  0.15413000  0.10089000  0.55355000  1
  C  C699  1  0.10089000  0.19143000  0.55355000  1
  C  C700  1  0.19143000  0.15413000  0.55355000  1
  C  C701  1  0.11511000  0.13905000  0.55149000  1
  C  C702  1  0.19435000  0.11511000  0.55149000  1
  C  C703  1  0.13905000  0.19435000  0.55149000  1
  C  C704  1  0.08469000  0.12791000  0.54893000  1
  C  C705  1  0.23847000  0.08469000  0.54893000  1
  C  C706  1  0.12791000  0.23847000  0.54893000  1
  C  C707  1  0.03730000  0.08754000  0.54658000  1
  C  C708  1  0.32858000  0.03730000  0.54658000  1
  C  C709  1  0.08754000  0.32858000  0.54658000  1
  C  C710  1  0.01657000  0.13213000  0.54639000  1
  C  C711  1  0.30491000  0.01657000  0.54639000  1
  C  C712  1  0.13213000  0.30491000  0.54639000  1
  C  C713  1  0.15028000  0.06910000  0.54548000  1
  C  C714  1  0.06910000  0.23514000  0.54548000  1
  C  C715  1  0.23514000  0.15028000  0.54548000  1
  C  C716  1  0.08219000  0.06419000  0.54545000  1
  C  C717  1  0.06419000  0.30817000  0.54545000  1
  C  C718  1  0.30817000  0.08219000  0.54545000  1
  C  C719  1  0.04073000  0.15339000  0.54505000  1
  C  C720  1  0.26083000  0.04073000  0.54505000  1
  C  C721  1  0.15339000  0.26083000  0.54505000  1
  C  C722  1  0.10653000  0.08521000  0.54417000  1
  C  C723  1  0.08521000  0.26409000  0.54417000  1
  C  C724  1  0.26409000  0.10653000  0.54417000  1
  C  C725  1  0.04505000  0.65339000  0.54073000  1
  C  C726  1  0.76083000  0.04505000  0.54073000  1
  C  C727  1  0.65339000  0.76083000  0.54073000  1
  C  C728  1  0.69226000  0.01110000  0.53894000  1
  C  C729  1  0.01110000  0.75770000  0.53894000  1
  C  C730  1  0.75770000  0.69226000  0.53894000  1
  C  C731  1  0.04658000  0.58754000  0.53730000  1
  C  C732  1  0.82858000  0.04658000  0.53730000  1
  C  C733  1  0.58754000  0.82858000  0.53730000  1
  C  C734  1  0.66186000  0.08232000  0.52778000  1
  C  C735  1  0.08232000  0.72804000  0.52778000  1
  C  C736  1  0.72804000  0.66186000  0.52778000  1
  C  C737  1  0.05530000  0.55554000  0.51972000  1
  C  C738  1  0.86944000  0.05530000  0.51972000  1
  C  C739  1  0.55554000  0.86944000  0.51972000  1
  C  C740  1  0.04639000  0.63213000  0.51657000  1
  C  C741  1  0.80491000  0.04639000  0.51657000  1
  C  C742  1  0.63213000  0.80491000  0.51657000  1
  C  C743  1  0.19226000  0.03894000  0.51110000  1
  C  C744  1  0.03894000  0.25770000  0.51110000  1
  C  C745  1  0.25770000  0.19226000  0.51110000  1
  C  C746  1  0.74230000  0.80774000  0.48890000  1
  C  C747  1  0.96106000  0.74230000  0.48890000  1
  C  C748  1  0.80774000  0.96106000  0.48890000  1
  C  C749  1  0.36787000  0.19509000  0.48343000  1
  C  C750  1  0.19509000  0.95361000  0.48343000  1
  C  C751  1  0.95361000  0.36787000  0.48343000  1
  C  C752  1  0.44446000  0.13056000  0.48028000  1
  C  C753  1  0.13056000  0.94470000  0.48028000  1
  C  C754  1  0.94470000  0.44446000  0.48028000  1
  C  C755  1  0.27196000  0.33814000  0.47222000  1
  C  C756  1  0.91768000  0.27196000  0.47222000  1
  C  C757  1  0.33814000  0.91768000  0.47222000  1
  C  C758  1  0.41246000  0.17142000  0.46270000  1
  C  C759  1  0.17142000  0.95342000  0.46270000  1
  C  C760  1  0.95342000  0.41246000  0.46270000  1
  C  C761  1  0.24230000  0.30774000  0.46106000  1
  C  C762  1  0.98890000  0.24230000  0.46106000  1
  C  C763  1  0.30774000  0.98890000  0.46106000  1
  C  C764  1  0.34661000  0.23917000  0.45927000  1
  C  C765  1  0.23917000  0.95495000  0.45927000  1
  C  C766  1  0.95495000  0.34661000  0.45927000  1
  C  C767  1  0.73591000  0.89347000  0.45583000  1
  C  C768  1  0.91479000  0.73591000  0.45583000  1
  C  C769  1  0.89347000  0.91479000  0.45583000  1
  C  C770  1  0.84661000  0.73917000  0.45495000  1
  C  C771  1  0.73917000  0.95927000  0.45495000  1
  C  C772  1  0.95927000  0.84661000  0.45495000  1
  C  C773  1  0.69183000  0.91781000  0.45455000  1
  C  C774  1  0.93581000  0.69183000  0.45455000  1
  C  C775  1  0.91781000  0.93581000  0.45455000  1
  C  C776  1  0.76486000  0.84972000  0.45452000  1
  C  C777  1  0.93090000  0.76486000  0.45452000  1
  C  C778  1  0.84972000  0.93090000  0.45452000  1
  C  C779  1  0.86787000  0.69509000  0.45361000  1
  C  C780  1  0.69509000  0.98343000  0.45361000  1
  C  C781  1  0.98343000  0.86787000  0.45361000  1
  C  C782  1  0.91246000  0.67142000  0.45342000  1
  C  C783  1  0.67142000  0.96270000  0.45342000  1
  C  C784  1  0.96270000  0.91246000  0.45342000  1
  C  C785  1  0.87209000  0.76153000  0.45107000  1
  C  C786  1  0.76153000  0.91531000  0.45107000  1
  C  C787  1  0.91531000  0.87209000  0.45107000  1
  C  C788  1  0.86095000  0.80565000  0.44851000  1
  C  C789  1  0.80565000  0.88489000  0.44851000  1
  C  C790  1  0.88489000  0.86095000  0.44851000  1
  C  C791  1  0.80857000  0.84587000  0.44645000  1
  C  C792  1  0.89911000  0.80857000  0.44645000  1
  C  C793  1  0.84587000  0.89911000  0.44645000  1
  C  C794  1  0.94446000  0.63056000  0.44470000  1
  C  C795  1  0.63056000  0.98028000  0.44470000  1
  C  C796  1  0.98028000  0.94446000  0.44470000  1
  C  C797  1  0.13056000  0.48028000  0.44446000  1
  C  C798  1  0.94470000  0.13056000  0.44446000  1
  C  C799  1  0.48028000  0.94470000  0.44446000  1
  C  C800  1  0.19183000  0.41781000  0.43581000  1
  C  C801  1  0.95455000  0.19183000  0.43581000  1
  C  C802  1  0.41781000  0.95455000  0.43581000  1
  C  C803  1  0.26486000  0.34972000  0.43090000  1
  C  C804  1  0.95452000  0.26486000  0.43090000  1
  C  C805  1  0.34972000  0.95452000  0.43090000  1
  C  C806  1  0.43581000  0.19183000  0.41781000  1
  C  C807  1  0.19183000  0.95455000  0.41781000  1
  C  C808  1  0.95455000  0.43581000  0.41781000  1
  C  C809  1  0.77196000  0.83814000  0.41768000  1
  C  C810  1  0.97222000  0.77196000  0.41768000  1
  C  C811  1  0.83814000  0.97222000  0.41768000  1
  C  C812  1  0.37209000  0.26153000  0.41531000  1
  C  C813  1  0.26153000  0.95107000  0.41531000  1
  C  C814  1  0.95107000  0.37209000  0.41531000  1
  C  C815  1  0.23591000  0.39347000  0.41479000  1
  C  C816  1  0.95583000  0.23591000  0.41479000  1
  C  C817  1  0.39347000  0.95583000  0.41479000  1
  C  C818  1  0.17142000  0.46270000  0.41246000  1
  C  C819  1  0.95342000  0.17142000  0.41246000  1
  C  C820  1  0.46270000  0.95342000  0.41246000  1
  C  C821  1  0.30857000  0.34587000  0.39911000  1
  C  C822  1  0.94645000  0.30857000  0.39911000  1
  C  C823  1  0.34587000  0.94645000  0.39911000  1
  C  C824  1  0.41479000  0.23591000  0.39347000  1
  C  C825  1  0.23591000  0.95583000  0.39347000  1
  C  C826  1  0.95583000  0.41479000  0.39347000  1
  C  C827  1  0.36095000  0.30565000  0.38489000  1
  C  C828  1  0.30565000  0.94851000  0.38489000  1
  C  C829  1  0.94851000  0.36095000  0.38489000  1
  C  C830  1  0.26153000  0.41531000  0.37209000  1
  C  C831  1  0.95107000  0.26153000  0.37209000  1
  C  C832  1  0.41531000  0.95107000  0.37209000  1
  C  C833  1  0.05554000  0.01972000  0.36944000  1
  C  C834  1  0.01972000  0.55530000  0.36944000  1
  C  C835  1  0.55530000  0.05554000  0.36944000  1
  C  C836  1  0.19509000  0.48343000  0.36787000  1
  C  C837  1  0.95361000  0.19509000  0.36787000  1
  C  C838  1  0.48343000  0.95361000  0.36787000  1
  C  C839  1  0.30565000  0.38489000  0.36095000  1
  C  C840  1  0.94851000  0.30565000  0.36095000  1
  C  C841  1  0.38489000  0.94851000  0.36095000  1
  C  C842  1  0.43090000  0.26486000  0.34972000  1
  C  C843  1  0.26486000  0.95452000  0.34972000  1
  C  C844  1  0.95452000  0.43090000  0.34972000  1
  C  C845  1  0.23917000  0.45927000  0.34661000  1
  C  C846  1  0.95495000  0.23917000  0.34661000  1
  C  C847  1  0.45927000  0.95495000  0.34661000  1
  C  C848  1  0.39911000  0.30857000  0.34587000  1
  C  C849  1  0.30857000  0.94645000  0.34587000  1
  C  C850  1  0.94645000  0.39911000  0.34587000  1
  C  C851  1  0.47222000  0.27196000  0.33814000  1
  C  C852  1  0.27196000  0.91768000  0.33814000  1
  C  C853  1  0.91768000  0.47222000  0.33814000  1
  C  C854  1  0.08754000  0.03730000  0.32858000  1
  C  C855  1  0.03730000  0.54658000  0.32858000  1
  C  C856  1  0.54658000  0.08754000  0.32858000  1
  C  C857  1  0.34587000  0.39911000  0.30857000  1
  C  C858  1  0.94645000  0.34587000  0.30857000  1
  C  C859  1  0.39911000  0.94645000  0.30857000  1
  C  C860  1  0.06419000  0.08219000  0.30817000  1
  C  C861  1  0.54545000  0.06419000  0.30817000  1
  C  C862  1  0.08219000  0.54545000  0.30817000  1
  C  C863  1  0.46106000  0.24230000  0.30774000  1
  C  C864  1  0.24230000  0.98890000  0.30774000  1
  C  C865  1  0.98890000  0.46106000  0.30774000  1
  C  C866  1  0.38489000  0.36095000  0.30565000  1
  C  C867  1  0.36095000  0.94851000  0.30565000  1
  C  C868  1  0.94851000  0.38489000  0.30565000  1
  C  C869  1  0.13213000  0.01657000  0.30491000  1
  C  C870  1  0.01657000  0.54639000  0.30491000  1
  C  C871  1  0.54639000  0.13213000  0.30491000  1
  C  C872  1  0.33814000  0.47222000  0.27196000  1
  C  C873  1  0.91768000  0.33814000  0.27196000  1
  C  C874  1  0.47222000  0.91768000  0.27196000  1
  C  C875  1  0.34972000  0.43090000  0.26486000  1
  C  C876  1  0.95452000  0.34972000  0.26486000  1
  C  C877  1  0.43090000  0.95452000  0.26486000  1
  C  C878  1  0.08521000  0.10653000  0.26409000  1
  C  C879  1  0.54417000  0.08521000  0.26409000  1
  C  C880  1  0.10653000  0.54417000  0.26409000  1
  C  C881  1  0.41531000  0.37209000  0.26153000  1
  C  C882  1  0.37209000  0.95107000  0.26153000  1
  C  C883  1  0.95107000  0.41531000  0.26153000  1
  C  C884  1  0.15339000  0.04073000  0.26083000  1
  C  C885  1  0.04073000  0.54505000  0.26083000  1
  C  C886  1  0.54505000  0.15339000  0.26083000  1
  C  C887  1  0.03894000  0.19226000  0.25770000  1
  C  C888  1  0.51110000  0.03894000  0.25770000  1
  C  C889  1  0.19226000  0.51110000  0.25770000  1
  C  C890  1  0.30774000  0.46106000  0.24230000  1
  C  C891  1  0.98890000  0.30774000  0.24230000  1
  C  C892  1  0.46106000  0.98890000  0.24230000  1
  C  C893  1  0.45927000  0.34661000  0.23917000  1
  C  C894  1  0.34661000  0.95495000  0.23917000  1
  C  C895  1  0.95495000  0.45927000  0.23917000  1
  C  C896  1  0.12791000  0.08469000  0.23847000  1
  C  C897  1  0.08469000  0.54893000  0.23847000  1
  C  C898  1  0.54893000  0.12791000  0.23847000  1
  C  C899  1  0.39347000  0.41479000  0.23591000  1
  C  C900  1  0.95583000  0.39347000  0.23591000  1
  C  C901  1  0.41479000  0.95583000  0.23591000  1
  C  C902  1  0.06910000  0.15028000  0.23514000  1
  C  C903  1  0.54548000  0.06910000  0.23514000  1
  C  C904  1  0.15028000  0.54548000  0.23514000  1
  C  C905  1  0.02778000  0.16186000  0.22804000  1
  C  C906  1  0.58232000  0.02778000  0.22804000  1
  C  C907  1  0.16186000  0.58232000  0.22804000  1
  C  C908  1  0.48343000  0.36787000  0.19509000  1
  C  C909  1  0.36787000  0.95361000  0.19509000  1
  C  C910  1  0.95361000  0.48343000  0.19509000  1
  C  C911  1  0.13905000  0.11511000  0.19435000  1
  C  C912  1  0.11511000  0.55149000  0.19435000  1
  C  C913  1  0.55149000  0.13905000  0.19435000  1
  C  C914  1  0.25770000  0.03894000  0.19226000  1
  C  C915  1  0.03894000  0.51110000  0.19226000  1
  C  C916  1  0.51110000  0.25770000  0.19226000  1
  C  C917  1  0.41781000  0.43581000  0.19183000  1
  C  C918  1  0.95455000  0.41781000  0.19183000  1
  C  C919  1  0.43581000  0.95455000  0.19183000  1
  C  C920  1  0.10089000  0.15413000  0.19143000  1
  C  C921  1  0.55355000  0.10089000  0.19143000  1
  C  C922  1  0.15413000  0.55355000  0.19143000  1
  C  C923  1  0.46270000  0.41246000  0.17142000  1
  C  C924  1  0.41246000  0.95342000  0.17142000  1
  C  C925  1  0.95342000  0.46270000  0.17142000  1
  C  C926  1  0.22804000  0.02778000  0.16186000  1
  C  C927  1  0.02778000  0.58232000  0.16186000  1
  C  C928  1  0.58232000  0.22804000  0.16186000  1
  C  C929  1  0.19143000  0.10089000  0.15413000  1
  C  C930  1  0.10089000  0.55355000  0.15413000  1
  C  C931  1  0.55355000  0.19143000  0.15413000  1
  C  C932  1  0.04073000  0.26083000  0.15339000  1
  C  C933  1  0.54505000  0.04073000  0.15339000  1
  C  C934  1  0.26083000  0.54505000  0.15339000  1
  C  C935  1  0.23514000  0.06910000  0.15028000  1
  C  C936  1  0.06910000  0.54548000  0.15028000  1
  C  C937  1  0.54548000  0.23514000  0.15028000  1
  C  C938  1  0.11511000  0.19435000  0.13905000  1
  C  C939  1  0.55149000  0.11511000  0.13905000  1
  C  C940  1  0.19435000  0.55149000  0.13905000  1
  C  C941  1  0.01657000  0.30491000  0.13213000  1
  C  C942  1  0.54639000  0.01657000  0.13213000  1
  C  C943  1  0.30491000  0.54639000  0.13213000  1
  C  C944  1  0.48028000  0.44446000  0.13056000  1
  C  C945  1  0.44446000  0.94470000  0.13056000  1
  C  C946  1  0.94470000  0.48028000  0.13056000  1
  C  C947  1  0.08469000  0.23847000  0.12791000  1
  C  C948  1  0.54893000  0.08469000  0.12791000  1
  C  C949  1  0.23847000  0.54893000  0.12791000  1
  C  C950  1  0.19435000  0.13905000  0.11511000  1
  C  C951  1  0.13905000  0.55149000  0.11511000  1
  C  C952  1  0.55149000  0.19435000  0.11511000  1
  C  C953  1  0.26409000  0.08521000  0.10653000  1
  C  C954  1  0.08521000  0.54417000  0.10653000  1
  C  C955  1  0.54417000  0.26409000  0.10653000  1
  C  C956  1  0.15413000  0.19143000  0.10089000  1
  C  C957  1  0.55355000  0.15413000  0.10089000  1
  C  C958  1  0.19143000  0.55355000  0.10089000  1
  C  C959  1  0.03730000  0.32858000  0.08754000  1
  C  C960  1  0.54658000  0.03730000  0.08754000  1
  C  C961  1  0.32858000  0.54658000  0.08754000  1
  C  C962  1  0.10653000  0.26409000  0.08521000  1
  C  C963  1  0.54417000  0.10653000  0.08521000  1
  C  C964  1  0.26409000  0.54417000  0.08521000  1
  C  C965  1  0.23847000  0.12791000  0.08469000  1
  C  C966  1  0.12791000  0.54893000  0.08469000  1
  C  C967  1  0.54893000  0.23847000  0.08469000  1
  C  C968  1  0.52778000  0.66186000  0.08232000  1
  C  C969  1  0.72804000  0.52778000  0.08232000  1
  C  C970  1  0.66186000  0.72804000  0.08232000  1
  C  C971  1  0.30817000  0.06419000  0.08219000  1
  C  C972  1  0.06419000  0.54545000  0.08219000  1
  C  C973  1  0.54545000  0.30817000  0.08219000  1
  C  C974  1  0.15028000  0.23514000  0.06910000  1
  C  C975  1  0.54548000  0.15028000  0.06910000  1
  C  C976  1  0.23514000  0.54548000  0.06910000  1
  C  C977  1  0.08219000  0.30817000  0.06419000  1
  C  C978  1  0.54545000  0.08219000  0.06419000  1
  C  C979  1  0.30817000  0.54545000  0.06419000  1
  C  C980  1  0.01972000  0.36944000  0.05554000  1
  C  C981  1  0.55530000  0.01972000  0.05554000  1
  C  C982  1  0.36944000  0.55530000  0.05554000  1
  C  C983  1  0.55554000  0.51972000  0.05530000  1
  C  C984  1  0.51972000  0.86944000  0.05530000  1
  C  C985  1  0.86944000  0.55554000  0.05530000  1
  C  C986  1  0.60089000  0.65413000  0.05355000  1
  C  C987  1  0.69143000  0.60089000  0.05355000  1
  C  C988  1  0.65413000  0.69143000  0.05355000  1
  C  C989  1  0.63905000  0.61511000  0.05149000  1
  C  C990  1  0.61511000  0.69435000  0.05149000  1
  C  C991  1  0.69435000  0.63905000  0.05149000  1
  C  C992  1  0.62791000  0.58469000  0.04893000  1
  C  C993  1  0.58469000  0.73847000  0.04893000  1
  C  C994  1  0.73847000  0.62791000  0.04893000  1
  C  C995  1  0.58754000  0.53730000  0.04658000  1
  C  C996  1  0.53730000  0.82858000  0.04658000  1
  C  C997  1  0.82858000  0.58754000  0.04658000  1
  C  C998  1  0.63213000  0.51657000  0.04639000  1
  C  C999  1  0.51657000  0.80491000  0.04639000  1
  C  C1000  1  0.80491000  0.63213000  0.04639000  1
  C  C1001  1  0.56910000  0.65028000  0.04548000  1
  C  C1002  1  0.73514000  0.56910000  0.04548000  1
  C  C1003  1  0.65028000  0.73514000  0.04548000  1
  C  C1004  1  0.56419000  0.58219000  0.04545000  1
  C  C1005  1  0.80817000  0.56419000  0.04545000  1
  C  C1006  1  0.58219000  0.80817000  0.04545000  1
  C  C1007  1  0.65339000  0.54073000  0.04505000  1
  C  C1008  1  0.54073000  0.76083000  0.04505000  1
  C  C1009  1  0.76083000  0.65339000  0.04505000  1
  C  C1010  1  0.58521000  0.60653000  0.04417000  1
  C  C1011  1  0.76409000  0.58521000  0.04417000  1
  C  C1012  1  0.60653000  0.76409000  0.04417000  1
  C  C1013  1  0.26083000  0.15339000  0.04073000  1
  C  C1014  1  0.15339000  0.54505000  0.04073000  1
  C  C1015  1  0.54505000  0.26083000  0.04073000  1
  C  C1016  1  0.19226000  0.25770000  0.03894000  1
  C  C1017  1  0.51110000  0.19226000  0.03894000  1
  C  C1018  1  0.25770000  0.51110000  0.03894000  1
  C  C1019  1  0.32858000  0.08754000  0.03730000  1
  C  C1020  1  0.08754000  0.54658000  0.03730000  1
  C  C1021  1  0.54658000  0.32858000  0.03730000  1
  C  C1022  1  0.16186000  0.22804000  0.02778000  1
  C  C1023  1  0.58232000  0.16186000  0.02778000  1
  C  C1024  1  0.22804000  0.58232000  0.02778000  1
  C  C1025  1  0.36944000  0.05554000  0.01972000  1
  C  C1026  1  0.05554000  0.55530000  0.01972000  1
  C  C1027  1  0.55530000  0.36944000  0.01972000  1
  C  C1028  1  0.30491000  0.13213000  0.01657000  1
  C  C1029  1  0.13213000  0.54639000  0.01657000  1
  C  C1030  1  0.54639000  0.30491000  0.01657000  1
  C  C1031  1  0.53894000  0.69226000  0.01110000  1
  C  C1032  1  0.75770000  0.53894000  0.01110000  1
  C  C1033  1  0.69226000  0.75770000  0.01110000  1
  O  O1034  1  0.44820000  0.00800000  0.99200000  1
  O  O1035  1  0.00800000  0.55180000  0.99200000  1
  O  O1036  1  0.55180000  0.44820000  0.99200000  1
  O  O1037  1  0.61344000  0.44830000  0.98802000  1
  O  O1038  1  0.44830000  0.95024000  0.98802000  1
  O  O1039  1  0.95024000  0.61344000  0.98802000  1
  O  O1040  1  0.39191000  0.07993000  0.97707000  1
  O  O1041  1  0.07993000  0.55109000  0.97707000  1
  O  O1042  1  0.55109000  0.39191000  0.97707000  1
  O  O1043  1  0.44830000  0.61344000  0.95024000  1
  O  O1044  1  0.98802000  0.44830000  0.95024000  1
  O  O1045  1  0.61344000  0.98802000  0.95024000  1
  O  O1046  1  0.10809000  0.42007000  0.94891000  1
  O  O1047  1  0.52293000  0.10809000  0.94891000  1
  O  O1048  1  0.42007000  0.52293000  0.94891000  1
  O  O1049  1  0.45024000  0.11344000  0.94830000  1
  O  O1050  1  0.11344000  0.48802000  0.94830000  1
  O  O1051  1  0.48802000  0.45024000  0.94830000  1
  O  O1052  1  0.05180000  0.49200000  0.94820000  1
  O  O1053  1  0.50800000  0.05180000  0.94820000  1
  O  O1054  1  0.49200000  0.50800000  0.94820000  1
  O  O1055  1  0.44891000  0.02293000  0.92007000  1
  O  O1056  1  0.02293000  0.60809000  0.92007000  1
  O  O1057  1  0.60809000  0.44891000  0.92007000  1
  O  O1058  1  0.05109000  0.47707000  0.89191000  1
  O  O1059  1  0.57993000  0.05109000  0.89191000  1
  O  O1060  1  0.47707000  0.57993000  0.89191000  1
  O  O1061  1  0.51198000  0.05170000  0.88656000  1
  O  O1062  1  0.05170000  0.54976000  0.88656000  1
  O  O1063  1  0.54976000  0.51198000  0.88656000  1
  O  O1064  1  0.95024000  0.44830000  0.61344000  1
  O  O1065  1  0.44830000  0.98802000  0.61344000  1
  O  O1066  1  0.98802000  0.95024000  0.61344000  1
  O  O1067  1  0.02293000  0.44891000  0.60809000  1
  O  O1068  1  0.92007000  0.02293000  0.60809000  1
  O  O1069  1  0.44891000  0.92007000  0.60809000  1
  O  O1070  1  0.47707000  0.05109000  0.57993000  1
  O  O1071  1  0.05109000  0.89191000  0.57993000  1
  O  O1072  1  0.89191000  0.47707000  0.57993000  1
  O  O1073  1  0.00800000  0.44820000  0.55180000  1
  O  O1074  1  0.99200000  0.00800000  0.55180000  1
  O  O1075  1  0.44820000  0.99200000  0.55180000  1
  O  O1076  1  0.04976000  0.01198000  0.55170000  1
  O  O1077  1  0.01198000  0.38656000  0.55170000  1
  O  O1078  1  0.38656000  0.04976000  0.55170000  1
  O  O1079  1  0.07993000  0.39191000  0.55109000  1
  O  O1080  1  0.97707000  0.07993000  0.55109000  1
  O  O1081  1  0.39191000  0.97707000  0.55109000  1
  O  O1082  1  0.05170000  0.51198000  0.54976000  1
  O  O1083  1  0.88656000  0.05170000  0.54976000  1
  O  O1084  1  0.51198000  0.88656000  0.54976000  1
  O  O1085  1  0.42007000  0.10809000  0.52293000  1
  O  O1086  1  0.10809000  0.94891000  0.52293000  1
  O  O1087  1  0.94891000  0.42007000  0.52293000  1
  O  O1088  1  0.54976000  0.05170000  0.51198000  1
  O  O1089  1  0.05170000  0.88656000  0.51198000  1
  O  O1090  1  0.88656000  0.54976000  0.51198000  1
  O  O1091  1  0.49200000  0.05180000  0.50800000  1
  O  O1092  1  0.05180000  0.94820000  0.50800000  1
  O  O1093  1  0.94820000  0.49200000  0.50800000  1
  O  O1094  1  0.05180000  0.50800000  0.49200000  1
  O  O1095  1  0.94820000  0.05180000  0.49200000  1
  O  O1096  1  0.50800000  0.94820000  0.49200000  1
  O  O1097  1  0.11344000  0.45024000  0.48802000  1
  O  O1098  1  0.94830000  0.11344000  0.48802000  1
  O  O1099  1  0.45024000  0.94830000  0.48802000  1
  O  O1100  1  0.05109000  0.57993000  0.47707000  1
  O  O1101  1  0.89191000  0.05109000  0.47707000  1
  O  O1102  1  0.57993000  0.89191000  0.47707000  1
  O  O1103  1  0.48802000  0.11344000  0.45024000  1
  O  O1104  1  0.11344000  0.94830000  0.45024000  1
  O  O1105  1  0.94830000  0.48802000  0.45024000  1
  O  O1106  1  0.60809000  0.02293000  0.44891000  1
  O  O1107  1  0.02293000  0.92007000  0.44891000  1
  O  O1108  1  0.92007000  0.60809000  0.44891000  1
  O  O1109  1  0.61344000  0.95024000  0.44830000  1
  O  O1110  1  0.98802000  0.61344000  0.44830000  1
  O  O1111  1  0.95024000  0.98802000  0.44830000  1
  O  O1112  1  0.55180000  0.00800000  0.44820000  1
  O  O1113  1  0.00800000  0.99200000  0.44820000  1
  O  O1114  1  0.99200000  0.55180000  0.44820000  1
  O  O1115  1  0.10809000  0.52293000  0.42007000  1
  O  O1116  1  0.94891000  0.10809000  0.42007000  1
  O  O1117  1  0.52293000  0.94891000  0.42007000  1
  O  O1118  1  0.55109000  0.07993000  0.39191000  1
  O  O1119  1  0.07993000  0.97707000  0.39191000  1
  O  O1120  1  0.97707000  0.55109000  0.39191000  1
  O  O1121  1  0.01198000  0.04976000  0.38656000  1
  O  O1122  1  0.55170000  0.01198000  0.38656000  1
  O  O1123  1  0.04976000  0.55170000  0.38656000  1
  O  O1124  1  0.45024000  0.48802000  0.11344000  1
  O  O1125  1  0.94830000  0.45024000  0.11344000  1
  O  O1126  1  0.48802000  0.94830000  0.11344000  1
  O  O1127  1  0.52293000  0.42007000  0.10809000  1
  O  O1128  1  0.42007000  0.94891000  0.10809000  1
  O  O1129  1  0.94891000  0.52293000  0.10809000  1
  O  O1130  1  0.39191000  0.55109000  0.07993000  1
  O  O1131  1  0.97707000  0.39191000  0.07993000  1
  O  O1132  1  0.55109000  0.97707000  0.07993000  1
  O  O1133  1  0.50800000  0.49200000  0.05180000  1
  O  O1134  1  0.49200000  0.94820000  0.05180000  1
  O  O1135  1  0.94820000  0.50800000  0.05180000  1
  O  O1136  1  0.51198000  0.54976000  0.05170000  1
  O  O1137  1  0.88656000  0.51198000  0.05170000  1
  O  O1138  1  0.54976000  0.88656000  0.05170000  1
  O  O1139  1  0.57993000  0.47707000  0.05109000  1
  O  O1140  1  0.47707000  0.89191000  0.05109000  1
  O  O1141  1  0.89191000  0.57993000  0.05109000  1
  O  O1142  1  0.38656000  0.01198000  0.04976000  1
  O  O1143  1  0.01198000  0.55170000  0.04976000  1
  O  O1144  1  0.55170000  0.38656000  0.04976000  1
  O  O1145  1  0.44891000  0.60809000  0.02293000  1
  O  O1146  1  0.92007000  0.44891000  0.02293000  1
  O  O1147  1  0.60809000  0.92007000  0.02293000  1
  O  O1148  1  0.04976000  0.38656000  0.01198000  1
  O  O1149  1  0.55170000  0.04976000  0.01198000  1
  O  O1150  1  0.38656000  0.55170000  0.01198000  1
  O  O1151  1  0.44820000  0.55180000  0.00800000  1
  O  O1152  1  0.99200000  0.44820000  0.00800000  1
  O  O1153  1  0.55180000  0.99200000  0.00800000  1
