# generated using pymatgen
data_Zn7H9C21(N6O7)2
_symmetry_space_group_name_H-M   'P 1'
_cell_length_a   20.16160000
_cell_length_b   20.16160000
_cell_length_c   20.16160000
_cell_angle_alpha   90.00000000
_cell_angle_beta   90.00000000
_cell_angle_gamma   90.00000000
_symmetry_Int_Tables_number   1
_chemical_formula_structural   Zn7H9C21(N6O7)2
_chemical_formula_sum   'Zn28 H36 C84 N48 O56'
_cell_volume   8195.49109371
_cell_formula_units_Z   4
loop_
 _symmetry_equiv_pos_site_id
 _symmetry_equiv_pos_as_xyz
  1  'x, y, z'
loop_
 _atom_site_type_symbol
 _atom_site_label
 _atom_site_symmetry_multiplicity
 _atom_site_fract_x
 _atom_site_fract_y
 _atom_site_fract_z
 _atom_site_occupancy
  Zn  Zn0  1  0.18975000  0.68975000  0.81025000  1
  Zn  Zn1  1  0.19113000  0.69746000  0.19584000  1
  Zn  Zn2  1  0.19201000  0.80281000  0.69618000  1
  Zn  Zn3  1  0.19584000  0.19113000  0.69746000  1
  Zn  Zn4  1  0.19618000  0.30799000  0.19719000  1
  Zn  Zn5  1  0.19719000  0.19618000  0.30799000  1
  Zn  Zn6  1  0.19746000  0.30416000  0.80887000  1
  Zn  Zn7  1  0.30254000  0.69584000  0.30887000  1
  Zn  Zn8  1  0.30281000  0.80382000  0.80799000  1
  Zn  Zn9  1  0.30382000  0.69201000  0.69719000  1
  Zn  Zn10  1  0.30416000  0.80887000  0.19746000  1
  Zn  Zn11  1  0.30799000  0.19719000  0.19618000  1
  Zn  Zn12  1  0.30887000  0.30254000  0.69584000  1
  Zn  Zn13  1  0.31025000  0.31025000  0.31025000  1
  Zn  Zn14  1  0.68975000  0.81025000  0.18975000  1
  Zn  Zn15  1  0.69113000  0.80254000  0.80416000  1
  Zn  Zn16  1  0.69201000  0.69719000  0.30382000  1
  Zn  Zn17  1  0.69584000  0.30887000  0.30254000  1
  Zn  Zn18  1  0.69618000  0.19201000  0.80281000  1
  Zn  Zn19  1  0.69719000  0.30382000  0.69201000  1
  Zn  Zn20  1  0.69746000  0.19584000  0.19113000  1
  Zn  Zn21  1  0.80254000  0.80416000  0.69113000  1
  Zn  Zn22  1  0.80281000  0.69618000  0.19201000  1
  Zn  Zn23  1  0.80382000  0.80799000  0.30281000  1
  Zn  Zn24  1  0.80416000  0.69113000  0.80254000  1
  Zn  Zn25  1  0.80799000  0.30281000  0.80382000  1
  Zn  Zn26  1  0.80887000  0.19746000  0.30416000  1
  Zn  Zn27  1  0.81025000  0.18975000  0.68975000  1
  H  H28  1  0.01770000  0.83390000  0.70600000  1
  H  H29  1  0.01900000  0.68410000  0.82880000  1
  H  H30  1  0.04950000  0.16480000  0.28670000  1
  H  H31  1  0.16480000  0.28670000  0.04950000  1
  H  H32  1  0.16610000  0.20600000  0.48230000  1
  H  H33  1  0.17120000  0.51900000  0.81590000  1
  H  H34  1  0.18410000  0.67120000  0.98100000  1
  H  H35  1  0.20600000  0.48230000  0.16610000  1
  H  H36  1  0.21330000  0.95050000  0.66480000  1
  H  H37  1  0.28670000  0.04950000  0.16480000  1
  H  H38  1  0.29400000  0.51770000  0.66610000  1
  H  H39  1  0.31590000  0.32880000  0.48100000  1
  H  H40  1  0.32880000  0.48100000  0.31590000  1
  H  H41  1  0.33390000  0.79400000  0.98230000  1
  H  H42  1  0.33520000  0.71330000  0.54950000  1
  H  H43  1  0.45050000  0.83520000  0.78670000  1
  H  H44  1  0.48100000  0.31590000  0.32880000  1
  H  H45  1  0.48230000  0.16610000  0.20600000  1
  H  H46  1  0.51770000  0.66610000  0.29400000  1
  H  H47  1  0.51900000  0.81590000  0.17120000  1
  H  H48  1  0.54950000  0.33520000  0.71330000  1
  H  H49  1  0.66480000  0.21330000  0.95050000  1
  H  H50  1  0.66610000  0.29400000  0.51770000  1
  H  H51  1  0.67120000  0.98100000  0.18410000  1
  H  H52  1  0.68410000  0.82880000  0.01900000  1
  H  H53  1  0.70600000  0.01770000  0.83390000  1
  H  H54  1  0.71330000  0.54950000  0.33520000  1
  H  H55  1  0.78670000  0.45050000  0.83520000  1
  H  H56  1  0.79400000  0.98230000  0.33390000  1
  H  H57  1  0.81590000  0.17120000  0.51900000  1
  H  H58  1  0.82880000  0.01900000  0.68410000  1
  H  H59  1  0.83390000  0.70600000  0.01770000  1
  H  H60  1  0.83520000  0.78670000  0.45050000  1
  H  H61  1  0.95050000  0.66480000  0.21330000  1
  H  H62  1  0.98100000  0.18410000  0.67120000  1
  H  H63  1  0.98230000  0.33390000  0.79400000  1
  C  C64  1  0.00210000  0.73640000  0.24800000  1
  C  C65  1  0.00290000  0.24030000  0.75290000  1
  C  C66  1  0.03260000  0.79230000  0.72230000  1
  C  C67  1  0.03520000  0.70980000  0.79280000  1
  C  C68  1  0.05300000  0.20910000  0.27110000  1
  C  C69  1  0.07490000  0.23610000  0.76350000  1
  C  C70  1  0.07580000  0.73130000  0.22080000  1
  C  C71  1  0.20720000  0.53520000  0.79020000  1
  C  C72  1  0.20770000  0.22230000  0.46740000  1
  C  C73  1  0.20910000  0.27110000  0.05300000  1
  C  C74  1  0.20980000  0.70720000  0.96480000  1
  C  C75  1  0.22080000  0.07580000  0.73130000  1
  C  C76  1  0.22230000  0.46740000  0.20770000  1
  C  C77  1  0.22890000  0.94700000  0.70910000  1
  C  C78  1  0.23130000  0.27920000  0.92420000  1
  C  C79  1  0.23610000  0.76350000  0.07490000  1
  C  C80  1  0.23640000  0.25200000  0.99790000  1
  C  C81  1  0.23650000  0.57490000  0.26390000  1
  C  C82  1  0.24030000  0.75290000  0.00290000  1
  C  C83  1  0.24710000  0.50290000  0.25970000  1
  C  C84  1  0.24800000  0.00210000  0.73640000  1
  C  C85  1  0.25200000  0.99790000  0.23640000  1
  C  C86  1  0.25290000  0.49710000  0.75970000  1
  C  C87  1  0.25970000  0.24710000  0.50290000  1
  C  C88  1  0.26350000  0.42510000  0.76390000  1
  C  C89  1  0.26360000  0.74800000  0.49790000  1
  C  C90  1  0.26390000  0.23650000  0.57490000  1
  C  C91  1  0.26870000  0.72080000  0.42420000  1
  C  C92  1  0.27110000  0.05300000  0.20910000  1
  C  C93  1  0.27770000  0.53260000  0.70770000  1
  C  C94  1  0.27920000  0.92420000  0.23130000  1
  C  C95  1  0.29020000  0.29280000  0.46480000  1
  C  C96  1  0.29090000  0.72890000  0.55300000  1
  C  C97  1  0.29230000  0.77770000  0.96740000  1
  C  C98  1  0.29280000  0.46480000  0.29020000  1
  C  C99  1  0.42420000  0.26870000  0.72080000  1
  C  C100  1  0.42510000  0.76390000  0.26350000  1
  C  C101  1  0.44700000  0.79090000  0.77110000  1
  C  C102  1  0.46480000  0.29020000  0.29280000  1
  C  C103  1  0.46740000  0.20770000  0.22230000  1
  C  C104  1  0.49710000  0.75970000  0.25290000  1
  C  C105  1  0.49790000  0.26360000  0.74800000  1
  C  C106  1  0.50210000  0.76360000  0.75200000  1
  C  C107  1  0.50290000  0.25970000  0.24710000  1
  C  C108  1  0.53260000  0.70770000  0.27770000  1
  C  C109  1  0.53520000  0.79020000  0.20720000  1
  C  C110  1  0.55300000  0.29090000  0.72890000  1
  C  C111  1  0.57490000  0.26390000  0.23650000  1
  C  C112  1  0.57580000  0.76870000  0.77920000  1
  C  C113  1  0.70720000  0.96480000  0.20980000  1
  C  C114  1  0.70770000  0.27770000  0.53260000  1
  C  C115  1  0.70910000  0.22890000  0.94700000  1
  C  C116  1  0.70980000  0.79280000  0.03520000  1
  C  C117  1  0.72080000  0.42420000  0.26870000  1
  C  C118  1  0.72230000  0.03260000  0.79230000  1
  C  C119  1  0.72890000  0.55300000  0.29090000  1
  C  C120  1  0.73130000  0.22080000  0.07580000  1
  C  C121  1  0.73610000  0.73650000  0.92510000  1
  C  C122  1  0.73640000  0.24800000  0.00210000  1
  C  C123  1  0.73650000  0.92510000  0.73610000  1
  C  C124  1  0.74030000  0.74710000  0.99710000  1
  C  C125  1  0.74710000  0.99710000  0.74030000  1
  C  C126  1  0.74800000  0.49790000  0.26360000  1
  C  C127  1  0.75200000  0.50210000  0.76360000  1
  C  C128  1  0.75290000  0.00290000  0.24030000  1
  C  C129  1  0.75970000  0.25290000  0.49710000  1
  C  C130  1  0.76350000  0.07490000  0.23610000  1
  C  C131  1  0.76360000  0.75200000  0.50210000  1
  C  C132  1  0.76390000  0.26350000  0.42510000  1
  C  C133  1  0.76870000  0.77920000  0.57580000  1
  C  C134  1  0.77110000  0.44700000  0.79090000  1
  C  C135  1  0.77770000  0.96740000  0.29230000  1
  C  C136  1  0.77920000  0.57580000  0.76870000  1
  C  C137  1  0.79020000  0.20720000  0.53520000  1
  C  C138  1  0.79090000  0.77110000  0.44700000  1
  C  C139  1  0.79230000  0.72230000  0.03260000  1
  C  C140  1  0.79280000  0.03520000  0.70980000  1
  C  C141  1  0.92420000  0.23130000  0.27920000  1
  C  C142  1  0.92510000  0.73610000  0.73650000  1
  C  C143  1  0.94700000  0.70910000  0.22890000  1
  C  C144  1  0.96480000  0.20980000  0.70720000  1
  C  C145  1  0.96740000  0.29230000  0.77770000  1
  C  C146  1  0.99710000  0.74030000  0.74710000  1
  C  C147  1  0.99790000  0.23640000  0.25200000  1
  N  N148  1  0.09840000  0.76670000  0.72750000  1
  N  N149  1  0.10160000  0.22980000  0.27180000  1
  N  N150  1  0.10220000  0.72170000  0.77930000  1
  N  N151  1  0.10620000  0.28000000  0.22160000  1
  N  N152  1  0.22000000  0.77840000  0.60620000  1
  N  N153  1  0.22070000  0.60220000  0.77830000  1
  N  N154  1  0.22160000  0.10620000  0.28000000  1
  N  N155  1  0.22170000  0.72070000  0.89780000  1
  N  N156  1  0.22750000  0.40160000  0.23330000  1
  N  N157  1  0.22820000  0.89840000  0.72980000  1
  N  N158  1  0.22980000  0.27180000  0.10160000  1
  N  N159  1  0.23330000  0.22750000  0.40160000  1
  N  N160  1  0.26670000  0.77250000  0.90160000  1
  N  N161  1  0.27020000  0.72820000  0.60160000  1
  N  N162  1  0.27180000  0.10160000  0.22980000  1
  N  N163  1  0.27250000  0.59840000  0.73330000  1
  N  N164  1  0.27830000  0.27930000  0.39780000  1
  N  N165  1  0.27840000  0.89380000  0.78000000  1
  N  N166  1  0.27930000  0.39780000  0.27830000  1
  N  N167  1  0.28000000  0.22160000  0.10620000  1
  N  N168  1  0.39380000  0.72000000  0.72160000  1
  N  N169  1  0.39780000  0.27830000  0.27930000  1
  N  N170  1  0.39840000  0.77020000  0.77180000  1
  N  N171  1  0.40160000  0.23330000  0.22750000  1
  N  N172  1  0.59840000  0.73330000  0.27250000  1
  N  N173  1  0.60160000  0.27020000  0.72820000  1
  N  N174  1  0.60220000  0.77830000  0.22070000  1
  N  N175  1  0.60620000  0.22000000  0.77840000  1
  N  N176  1  0.72000000  0.72160000  0.39380000  1
  N  N177  1  0.72070000  0.89780000  0.22170000  1
  N  N178  1  0.72160000  0.39380000  0.72000000  1
  N  N179  1  0.72170000  0.77930000  0.10220000  1
  N  N180  1  0.72750000  0.09840000  0.76670000  1
  N  N181  1  0.72820000  0.60160000  0.27020000  1
  N  N182  1  0.72980000  0.22820000  0.89840000  1
  N  N183  1  0.73330000  0.27250000  0.59840000  1
  N  N184  1  0.76670000  0.72750000  0.09840000  1
  N  N185  1  0.77020000  0.77180000  0.39840000  1
  N  N186  1  0.77180000  0.39840000  0.77020000  1
  N  N187  1  0.77250000  0.90160000  0.26670000  1
  N  N188  1  0.77830000  0.22070000  0.60220000  1
  N  N189  1  0.77840000  0.60620000  0.22000000  1
  N  N190  1  0.77930000  0.10220000  0.72170000  1
  N  N191  1  0.78000000  0.27840000  0.89380000  1
  N  N192  1  0.89380000  0.78000000  0.27840000  1
  N  N193  1  0.89780000  0.22170000  0.72070000  1
  N  N194  1  0.89840000  0.72980000  0.22820000  1
  N  N195  1  0.90160000  0.26670000  0.77250000  1
  O  O196  1  0.10370000  0.70190000  0.20820000  1
  O  O197  1  0.10710000  0.27550000  0.78970000  1
  O  O198  1  0.10740000  0.20420000  0.72650000  1
  O  O199  1  0.11320000  0.79050000  0.21870000  1
  O  O200  1  0.20190000  0.29180000  0.89630000  1
  O  O201  1  0.20420000  0.72650000  0.10740000  1
  O  O202  1  0.20820000  0.10370000  0.70190000  1
  O  O203  1  0.20950000  0.71870000  0.38680000  1
  O  O204  1  0.21030000  0.60710000  0.22450000  1
  O  O205  1  0.21870000  0.11320000  0.79050000  1
  O  O206  1  0.22450000  0.21030000  0.60710000  1
  O  O207  1  0.22650000  0.39260000  0.79580000  1
  O  O208  1  0.24500000  0.75500000  0.25500000  1
  O  O209  1  0.24700000  0.74700000  0.75300000  1
  O  O210  1  0.25300000  0.25300000  0.25300000  1
  O  O211  1  0.25500000  0.24500000  0.75500000  1
  O  O212  1  0.27350000  0.60740000  0.29580000  1
  O  O213  1  0.27550000  0.78970000  0.10710000  1
  O  O214  1  0.28130000  0.88680000  0.29050000  1
  O  O215  1  0.28970000  0.39290000  0.72450000  1
  O  O216  1  0.29050000  0.28130000  0.88680000  1
  O  O217  1  0.29180000  0.89630000  0.20190000  1
  O  O218  1  0.29580000  0.27350000  0.60740000  1
  O  O219  1  0.29810000  0.70820000  0.39630000  1
  O  O220  1  0.38680000  0.20950000  0.71870000  1
  O  O221  1  0.39260000  0.79580000  0.22650000  1
  O  O222  1  0.39290000  0.72450000  0.28970000  1
  O  O223  1  0.39630000  0.29810000  0.70820000  1
  O  O224  1  0.60370000  0.79810000  0.79180000  1
  O  O225  1  0.60710000  0.22450000  0.21030000  1
  O  O226  1  0.60740000  0.29580000  0.27350000  1
  O  O227  1  0.61320000  0.70950000  0.78130000  1
  O  O228  1  0.70190000  0.20820000  0.10370000  1
  O  O229  1  0.70420000  0.77350000  0.89260000  1
  O  O230  1  0.70820000  0.39630000  0.29810000  1
  O  O231  1  0.70950000  0.78130000  0.61320000  1
  O  O232  1  0.71030000  0.89290000  0.77550000  1
  O  O233  1  0.71870000  0.38680000  0.20950000  1
  O  O234  1  0.72450000  0.28970000  0.39290000  1
  O  O235  1  0.72650000  0.10740000  0.20420000  1
  O  O236  1  0.74500000  0.74500000  0.74500000  1
  O  O237  1  0.74700000  0.75300000  0.24700000  1
  O  O238  1  0.75300000  0.24700000  0.74700000  1
  O  O239  1  0.75500000  0.25500000  0.24500000  1
  O  O240  1  0.77350000  0.89260000  0.70420000  1
  O  O241  1  0.77550000  0.71030000  0.89290000  1
  O  O242  1  0.78130000  0.61320000  0.70950000  1
  O  O243  1  0.78970000  0.10710000  0.27550000  1
  O  O244  1  0.79050000  0.21870000  0.11320000  1
  O  O245  1  0.79180000  0.60370000  0.79810000  1
  O  O246  1  0.79580000  0.22650000  0.39260000  1
  O  O247  1  0.79810000  0.79180000  0.60370000  1
  O  O248  1  0.88680000  0.29050000  0.28130000  1
  O  O249  1  0.89260000  0.70420000  0.77350000  1
  O  O250  1  0.89290000  0.77550000  0.71030000  1
  O  O251  1  0.89630000  0.20190000  0.29180000  1
