# generated using pymatgen
data_DyH13C26(NO4)2
_symmetry_space_group_name_H-M   'P 1'
_cell_length_a   11.77350000
_cell_length_b   18.61440000
_cell_length_c   27.90220000
_cell_angle_alpha   90.00000000
_cell_angle_beta   90.00000000
_cell_angle_gamma   100.08500000
_symmetry_Int_Tables_number   1
_chemical_formula_structural   DyH13C26(NO4)2
_chemical_formula_sum   'Dy8 H104 C208 N16 O64'
_cell_volume   6020.47057650
_cell_formula_units_Z   8
loop_
 _symmetry_equiv_pos_site_id
 _symmetry_equiv_pos_as_xyz
  1  'x, y, z'
loop_
 _atom_site_type_symbol
 _atom_site_label
 _atom_site_symmetry_multiplicity
 _atom_site_fract_x
 _atom_site_fract_y
 _atom_site_fract_z
 _atom_site_occupancy
  Dy  Dy0  1  0.04493000  0.04463000  0.21701000  1
  Dy  Dy1  1  0.24889000  0.99901000  0.96756000  1
  Dy  Dy2  1  0.25111000  0.00099000  0.46756000  1
  Dy  Dy3  1  0.45507000  0.95537000  0.71701000  1
  Dy  Dy4  1  0.54493000  0.04463000  0.28299000  1
  Dy  Dy5  1  0.74889000  0.99901000  0.53244000  1
  Dy  Dy6  1  0.75111000  0.00099000  0.03244000  1
  Dy  Dy7  1  0.95507000  0.95537000  0.78299000  1
  H  H8  1  0.01240000  0.41310000  0.96080000  1
  H  H9  1  0.01860000  0.22060000  0.72920000  1
  H  H10  1  0.03470000  0.29290000  0.29120000  1
  H  H11  1  0.04000000  0.22120000  0.02440000  1
  H  H12  1  0.04610000  0.57040000  0.43110000  1
  H  H13  1  0.05220000  0.47110000  0.65980000  1
  H  H14  1  0.05500000  0.59590000  0.20800000  1
  H  H15  1  0.05730000  0.65480000  0.36680000  1
  H  H16  1  0.05970000  0.31090000  0.46140000  1
  H  H17  1  0.09180000  0.61520000  0.74140000  1
  H  H18  1  0.10300000  0.77730000  0.38340000  1
  H  H19  1  0.11120000  0.18170000  0.86320000  1
  H  H20  1  0.12250000  0.33840000  0.00200000  1
  H  H21  1  0.14160000  0.71830000  0.12730000  1
  H  H22  1  0.14620000  0.49010000  0.22890000  1
  H  H23  1  0.15510000  0.48600000  0.58480000  1
  H  H24  1  0.16240000  0.32900000  0.38450000  1
  H  H25  1  0.16270000  0.55670000  0.97020000  1
  H  H26  1  0.16800000  0.38990000  0.81330000  1
  H  H27  1  0.17220000  0.73640000  0.52260000  1
  H  H28  1  0.17520000  0.30780000  0.87370000  1
  H  H29  1  0.17830000  0.73060000  0.71660000  1
  H  H30  1  0.19040000  0.54320000  0.78710000  1
  H  H31  1  0.23450000  0.25020000  0.53140000  1
  H  H32  1  0.24520000  0.73240000  0.20420000  1
  H  H33  1  0.24530000  0.54810000  0.45130000  1
  H  H34  1  0.25470000  0.45190000  0.95130000  1
  H  H35  1  0.25480000  0.26760000  0.70420000  1
  H  H36  1  0.26550000  0.74980000  0.03140000  1
  H  H37  1  0.30960000  0.45680000  0.28710000  1
  H  H38  1  0.32170000  0.26940000  0.21660000  1
  H  H39  1  0.32480000  0.69220000  0.37370000  1
  H  H40  1  0.32780000  0.26360000  0.02260000  1
  H  H41  1  0.33200000  0.61010000  0.31330000  1
  H  H42  1  0.33730000  0.44330000  0.47020000  1
  H  H43  1  0.33760000  0.67100000  0.88450000  1
  H  H44  1  0.34490000  0.51400000  0.08480000  1
  H  H45  1  0.35380000  0.50990000  0.72890000  1
  H  H46  1  0.35840000  0.28170000  0.62730000  1
  H  H47  1  0.37750000  0.66160000  0.50200000  1
  H  H48  1  0.38880000  0.81830000  0.36320000  1
  H  H49  1  0.39700000  0.22270000  0.88340000  1
  H  H50  1  0.40820000  0.38480000  0.24140000  1
  H  H51  1  0.44030000  0.68910000  0.96140000  1
  H  H52  1  0.44270000  0.34520000  0.86680000  1
  H  H53  1  0.44500000  0.40410000  0.70800000  1
  H  H54  1  0.44780000  0.52890000  0.15980000  1
  H  H55  1  0.45390000  0.42960000  0.93110000  1
  H  H56  1  0.46000000  0.77880000  0.52440000  1
  H  H57  1  0.46530000  0.70710000  0.79120000  1
  H  H58  1  0.48140000  0.77940000  0.22920000  1
  H  H59  1  0.48760000  0.58690000  0.46080000  1
  H  H60  1  0.51240000  0.41310000  0.53920000  1
  H  H61  1  0.51860000  0.22060000  0.77080000  1
  H  H62  1  0.53470000  0.29290000  0.20880000  1
  H  H63  1  0.54000000  0.22120000  0.47560000  1
  H  H64  1  0.54610000  0.57040000  0.06890000  1
  H  H65  1  0.55220000  0.47110000  0.84020000  1
  H  H66  1  0.55500000  0.59590000  0.29200000  1
  H  H67  1  0.55730000  0.65480000  0.13320000  1
  H  H68  1  0.55970000  0.31090000  0.03860000  1
  H  H69  1  0.59180000  0.61520000  0.75860000  1
  H  H70  1  0.60300000  0.77730000  0.11660000  1
  H  H71  1  0.61120000  0.18170000  0.63680000  1
  H  H72  1  0.62250000  0.33840000  0.49800000  1
  H  H73  1  0.64160000  0.71830000  0.37270000  1
  H  H74  1  0.64620000  0.49010000  0.27110000  1
  H  H75  1  0.65510000  0.48600000  0.91520000  1
  H  H76  1  0.66240000  0.32900000  0.11550000  1
  H  H77  1  0.66270000  0.55670000  0.52980000  1
  H  H78  1  0.66800000  0.38990000  0.68670000  1
  H  H79  1  0.67220000  0.73640000  0.97740000  1
  H  H80  1  0.67520000  0.30780000  0.62630000  1
  H  H81  1  0.67830000  0.73060000  0.78340000  1
  H  H82  1  0.69040000  0.54320000  0.71290000  1
  H  H83  1  0.73450000  0.25020000  0.96860000  1
  H  H84  1  0.74520000  0.73240000  0.29580000  1
  H  H85  1  0.74530000  0.54810000  0.04870000  1
  H  H86  1  0.75470000  0.45190000  0.54870000  1
  H  H87  1  0.75480000  0.26760000  0.79580000  1
  H  H88  1  0.76550000  0.74980000  0.46860000  1
  H  H89  1  0.80960000  0.45680000  0.21290000  1
  H  H90  1  0.82170000  0.26940000  0.28340000  1
  H  H91  1  0.82480000  0.69220000  0.12630000  1
  H  H92  1  0.82780000  0.26360000  0.47740000  1
  H  H93  1  0.83200000  0.61010000  0.18670000  1
  H  H94  1  0.83730000  0.44330000  0.02980000  1
  H  H95  1  0.83760000  0.67100000  0.61550000  1
  H  H96  1  0.84490000  0.51400000  0.41520000  1
  H  H97  1  0.85380000  0.50990000  0.77110000  1
  H  H98  1  0.85840000  0.28170000  0.87270000  1
  H  H99  1  0.87750000  0.66160000  0.99800000  1
  H  H100  1  0.88880000  0.81830000  0.13680000  1
  H  H101  1  0.89700000  0.22270000  0.61660000  1
  H  H102  1  0.90820000  0.38480000  0.25860000  1
  H  H103  1  0.94030000  0.68910000  0.53860000  1
  H  H104  1  0.94270000  0.34520000  0.63320000  1
  H  H105  1  0.94500000  0.40410000  0.79200000  1
  H  H106  1  0.94780000  0.52890000  0.34020000  1
  H  H107  1  0.95390000  0.42960000  0.56890000  1
  H  H108  1  0.96000000  0.77880000  0.97560000  1
  H  H109  1  0.96530000  0.70710000  0.70880000  1
  H  H110  1  0.98140000  0.77940000  0.27080000  1
  H  H111  1  0.98760000  0.58690000  0.03920000  1
  C  C112  1  0.00550000  0.74850000  0.99130000  1
  C  C113  1  0.01670000  0.98480000  0.52530000  1
  C  C114  1  0.01800000  0.99000000  0.02530000  1
  C  C115  1  0.02260000  0.63460000  0.02950000  1
  C  C116  1  0.02270000  0.11070000  0.78680000  1
  C  C117  1  0.02960000  0.41700000  0.72400000  1
  C  C118  1  0.03340000  0.60330000  0.56330000  1
  C  C119  1  0.04370000  0.32050000  0.99500000  1
  C  C120  1  0.04380000  0.56890000  0.23700000  1
  C  C121  1  0.04850000  0.34410000  0.43670000  1
  C  C122  1  0.05420000  0.40740000  0.36700000  1
  C  C123  1  0.05470000  0.23930000  0.75810000  1
  C  C124  1  0.05560000  0.48810000  0.29460000  1
  C  C125  1  0.06330000  0.19250000  0.79560000  1
  C  C126  1  0.07270000  0.62090000  0.43650000  1
  C  C127  1  0.07610000  0.67110000  0.39860000  1
  C  C128  1  0.08780000  0.42890000  0.31930000  1
  C  C129  1  0.09440000  0.51110000  0.24840000  1
  C  C130  1  0.09780000  0.31340000  0.76180000  1
  C  C131  1  0.10130000  0.36530000  0.72090000  1
  C  C132  1  0.10230000  0.35340000  0.39480000  1
  C  C133  1  0.10650000  0.21500000  0.83780000  1
  C  C134  1  0.10680000  0.74320000  0.40840000  1
  C  C135  1  0.10740000  0.59460000  0.52380000  1
  C  C136  1  0.10850000  0.64560000  0.48220000  1
  C  C137  1  0.11040000  0.31240000  0.28040000  1
  C  C138  1  0.11610000  0.19370000  0.23790000  1
  C  C139  1  0.11980000  0.77430000  0.00000000  1
  C  C140  1  0.13880000  0.65960000  0.03960000  1
  C  C141  1  0.14180000  0.33930000  0.80790000  1
  C  C142  1  0.14360000  0.76930000  0.45320000  1
  C  C143  1  0.14520000  0.29040000  0.84350000  1
  C  C144  1  0.14610000  0.71990000  0.49170000  1
  C  C145  1  0.16010000  0.38390000  0.29350000  1
  C  C146  1  0.16890000  0.63370000  0.75090000  1
  C  C147  1  0.17040000  0.26850000  0.25150000  1
  C  C148  1  0.17150000  0.53800000  0.52080000  1
  C  C149  1  0.17450000  0.35640000  0.68160000  1
  C  C150  1  0.17800000  0.85060000  0.98590000  1
  C  C151  1  0.18100000  0.85040000  0.46250000  1
  C  C152  1  0.18680000  0.73090000  0.02470000  1
  C  C153  1  0.18890000  0.97380000  0.72380000  1
  C  C154  1  0.19780000  0.69120000  0.13820000  1
  C  C155  1  0.21090000  0.53520000  0.99110000  1
  C  C156  1  0.21140000  0.61450000  0.06560000  1
  C  C157  1  0.21940000  0.70280000  0.73660000  1
  C  C158  1  0.22260000  0.94350000  0.77400000  1
  C  C159  1  0.22750000  0.59090000  0.77830000  1
  C  C160  1  0.23810000  0.52210000  0.48070000  1
  C  C161  1  0.24130000  0.55800000  0.03830000  1
  C  C162  1  0.24150000  0.63370000  0.11270000  1
  C  C163  1  0.24730000  0.30210000  0.67980000  1
  C  C164  1  0.25270000  0.69790000  0.17980000  1
  C  C165  1  0.25850000  0.36630000  0.61270000  1
  C  C166  1  0.25870000  0.44200000  0.53830000  1
  C  C167  1  0.26190000  0.47790000  0.98070000  1
  C  C168  1  0.27250000  0.40910000  0.27830000  1
  C  C169  1  0.27740000  0.05650000  0.27400000  1
  C  C170  1  0.28060000  0.29720000  0.23660000  1
  C  C171  1  0.28860000  0.38550000  0.56560000  1
  C  C172  1  0.28910000  0.46480000  0.49110000  1
  C  C173  1  0.30220000  0.30880000  0.63820000  1
  C  C174  1  0.31110000  0.02620000  0.22380000  1
  C  C175  1  0.31320000  0.26910000  0.52470000  1
  C  C176  1  0.31900000  0.14960000  0.96250000  1
  C  C177  1  0.32200000  0.14940000  0.48590000  1
  C  C178  1  0.32550000  0.64360000  0.18160000  1
  C  C179  1  0.32850000  0.46200000  0.02080000  1
  C  C180  1  0.32960000  0.73150000  0.75150000  1
  C  C181  1  0.33110000  0.36630000  0.25090000  1
  C  C182  1  0.33990000  0.61610000  0.79350000  1
  C  C183  1  0.35390000  0.28010000  0.99170000  1
  C  C184  1  0.35480000  0.70960000  0.34350000  1
  C  C185  1  0.35640000  0.23070000  0.95320000  1
  C  C186  1  0.35820000  0.66070000  0.30790000  1
  C  C187  1  0.36120000  0.34040000  0.53960000  1
  C  C188  1  0.38020000  0.22570000  0.50000000  1
  C  C189  1  0.38390000  0.80630000  0.73790000  1
  C  C190  1  0.38960000  0.68760000  0.78040000  1
  C  C191  1  0.39150000  0.35440000  0.98220000  1
  C  C192  1  0.39260000  0.40540000  0.02380000  1
  C  C193  1  0.39320000  0.25680000  0.90840000  1
  C  C194  1  0.39350000  0.78500000  0.33780000  1
  C  C195  1  0.39770000  0.64660000  0.89480000  1
  C  C196  1  0.39870000  0.63470000  0.22090000  1
  C  C197  1  0.40220000  0.68660000  0.26180000  1
  C  C198  1  0.40560000  0.48890000  0.74840000  1
  C  C199  1  0.41220000  0.57110000  0.81930000  1
  C  C200  1  0.42390000  0.32890000  0.89860000  1
  C  C201  1  0.42730000  0.37910000  0.93650000  1
  C  C202  1  0.43670000  0.80750000  0.29560000  1
  C  C203  1  0.44440000  0.51190000  0.79460000  1
  C  C204  1  0.44530000  0.76070000  0.25810000  1
  C  C205  1  0.44580000  0.59260000  0.86700000  1
  C  C206  1  0.45150000  0.65590000  0.93670000  1
  C  C207  1  0.45620000  0.43110000  0.73700000  1
  C  C208  1  0.45630000  0.67950000  0.49500000  1
  C  C209  1  0.46660000  0.39670000  0.06330000  1
  C  C210  1  0.47040000  0.58300000  0.22400000  1
  C  C211  1  0.47730000  0.88930000  0.28680000  1
  C  C212  1  0.47740000  0.36540000  0.52950000  1
  C  C213  1  0.48200000  0.01000000  0.52530000  1
  C  C214  1  0.48330000  0.01520000  0.02530000  1
  C  C215  1  0.49450000  0.25150000  0.49130000  1
  C  C216  1  0.50550000  0.74850000  0.50870000  1
  C  C217  1  0.51670000  0.98480000  0.97470000  1
  C  C218  1  0.51800000  0.99000000  0.47470000  1
  C  C219  1  0.52260000  0.63460000  0.47050000  1
  C  C220  1  0.52270000  0.11070000  0.71320000  1
  C  C221  1  0.52960000  0.41700000  0.77600000  1
  C  C222  1  0.53340000  0.60330000  0.93670000  1
  C  C223  1  0.54370000  0.32050000  0.50500000  1
  C  C224  1  0.54380000  0.56890000  0.26300000  1
  C  C225  1  0.54850000  0.34410000  0.06330000  1
  C  C226  1  0.55420000  0.40740000  0.13300000  1
  C  C227  1  0.55470000  0.23930000  0.74190000  1
  C  C228  1  0.55560000  0.48810000  0.20540000  1
  C  C229  1  0.56330000  0.19250000  0.70440000  1
  C  C230  1  0.57270000  0.62090000  0.06350000  1
  C  C231  1  0.57610000  0.67110000  0.10140000  1
  C  C232  1  0.58780000  0.42890000  0.18070000  1
  C  C233  1  0.59440000  0.51110000  0.25160000  1
  C  C234  1  0.59780000  0.31340000  0.73820000  1
  C  C235  1  0.60130000  0.36530000  0.77910000  1
  C  C236  1  0.60230000  0.35340000  0.10520000  1
  C  C237  1  0.60650000  0.21500000  0.66220000  1
  C  C238  1  0.60680000  0.74320000  0.09160000  1
  C  C239  1  0.60740000  0.59460000  0.97620000  1
  C  C240  1  0.60850000  0.64560000  0.01780000  1
  C  C241  1  0.61040000  0.31240000  0.21960000  1
  C  C242  1  0.61610000  0.19370000  0.26210000  1
  C  C243  1  0.61980000  0.77430000  0.50000000  1
  C  C244  1  0.63880000  0.65960000  0.46040000  1
  C  C245  1  0.64180000  0.33930000  0.69210000  1
  C  C246  1  0.64360000  0.76930000  0.04680000  1
  C  C247  1  0.64520000  0.29040000  0.65650000  1
  C  C248  1  0.64610000  0.71990000  0.00830000  1
  C  C249  1  0.66010000  0.38390000  0.20650000  1
  C  C250  1  0.66890000  0.63370000  0.74910000  1
  C  C251  1  0.67040000  0.26850000  0.24850000  1
  C  C252  1  0.67150000  0.53800000  0.97920000  1
  C  C253  1  0.67450000  0.35640000  0.81840000  1
  C  C254  1  0.67800000  0.85060000  0.51410000  1
  C  C255  1  0.68100000  0.85040000  0.03750000  1
  C  C256  1  0.68680000  0.73090000  0.47530000  1
  C  C257  1  0.68890000  0.97380000  0.77620000  1
  C  C258  1  0.69780000  0.69120000  0.36180000  1
  C  C259  1  0.71090000  0.53520000  0.50890000  1
  C  C260  1  0.71140000  0.61450000  0.43440000  1
  C  C261  1  0.71940000  0.70280000  0.76340000  1
  C  C262  1  0.72260000  0.94350000  0.72600000  1
  C  C263  1  0.72750000  0.59090000  0.72170000  1
  C  C264  1  0.73810000  0.52210000  0.01930000  1
  C  C265  1  0.74130000  0.55800000  0.46170000  1
  C  C266  1  0.74150000  0.63370000  0.38730000  1
  C  C267  1  0.74730000  0.30210000  0.82020000  1
  C  C268  1  0.75270000  0.69790000  0.32020000  1
  C  C269  1  0.75850000  0.36630000  0.88730000  1
  C  C270  1  0.75870000  0.44200000  0.96170000  1
  C  C271  1  0.76190000  0.47790000  0.51930000  1
  C  C272  1  0.77250000  0.40910000  0.22170000  1
  C  C273  1  0.77740000  0.05650000  0.22600000  1
  C  C274  1  0.78060000  0.29720000  0.26340000  1
  C  C275  1  0.78860000  0.38550000  0.93440000  1
  C  C276  1  0.78910000  0.46480000  0.00890000  1
  C  C277  1  0.80220000  0.30880000  0.86180000  1
  C  C278  1  0.81110000  0.02620000  0.27620000  1
  C  C279  1  0.81320000  0.26910000  0.97530000  1
  C  C280  1  0.81900000  0.14960000  0.53750000  1
  C  C281  1  0.82200000  0.14940000  0.01410000  1
  C  C282  1  0.82550000  0.64360000  0.31840000  1
  C  C283  1  0.82850000  0.46200000  0.47920000  1
  C  C284  1  0.82960000  0.73150000  0.74850000  1
  C  C285  1  0.83110000  0.36630000  0.24910000  1
  C  C286  1  0.83990000  0.61610000  0.70650000  1
  C  C287  1  0.85390000  0.28010000  0.50830000  1
  C  C288  1  0.85480000  0.70960000  0.15650000  1
  C  C289  1  0.85640000  0.23070000  0.54680000  1
  C  C290  1  0.85820000  0.66070000  0.19210000  1
  C  C291  1  0.86120000  0.34040000  0.96040000  1
  C  C292  1  0.88020000  0.22570000  0.00000000  1
  C  C293  1  0.88390000  0.80630000  0.76210000  1
  C  C294  1  0.88960000  0.68760000  0.71960000  1
  C  C295  1  0.89150000  0.35440000  0.51780000  1
  C  C296  1  0.89260000  0.40540000  0.47620000  1
  C  C297  1  0.89320000  0.25680000  0.59160000  1
  C  C298  1  0.89350000  0.78500000  0.16220000  1
  C  C299  1  0.89770000  0.64660000  0.60520000  1
  C  C300  1  0.89870000  0.63470000  0.27910000  1
  C  C301  1  0.90220000  0.68660000  0.23820000  1
  C  C302  1  0.90560000  0.48890000  0.75160000  1
  C  C303  1  0.91220000  0.57110000  0.68070000  1
  C  C304  1  0.92390000  0.32890000  0.60140000  1
  C  C305  1  0.92730000  0.37910000  0.56350000  1
  C  C306  1  0.93670000  0.80750000  0.20440000  1
  C  C307  1  0.94440000  0.51190000  0.70540000  1
  C  C308  1  0.94530000  0.76070000  0.24190000  1
  C  C309  1  0.94580000  0.59260000  0.63300000  1
  C  C310  1  0.95150000  0.65590000  0.56330000  1
  C  C311  1  0.95620000  0.43110000  0.76300000  1
  C  C312  1  0.95630000  0.67950000  0.00500000  1
  C  C313  1  0.96660000  0.39670000  0.43670000  1
  C  C314  1  0.97040000  0.58300000  0.27600000  1
  C  C315  1  0.97730000  0.88930000  0.21320000  1
  C  C316  1  0.97740000  0.36540000  0.97050000  1
  C  C317  1  0.98200000  0.01000000  0.97470000  1
  C  C318  1  0.98330000  0.01520000  0.47470000  1
  C  C319  1  0.99450000  0.25150000  0.00870000  1
  N  N320  1  0.01850000  0.46780000  0.68810000  1
  N  N321  1  0.02480000  0.56660000  0.60600000  1
  N  N322  1  0.18390000  0.39600000  0.64060000  1
  N  N323  1  0.18610000  0.48830000  0.55600000  1
  N  N324  1  0.31390000  0.51170000  0.05600000  1
  N  N325  1  0.31610000  0.60400000  0.14060000  1
  N  N326  1  0.47520000  0.43340000  0.10600000  1
  N  N327  1  0.48150000  0.53220000  0.18810000  1
  N  N328  1  0.51850000  0.46780000  0.81190000  1
  N  N329  1  0.52480000  0.56660000  0.89400000  1
  N  N330  1  0.68390000  0.39600000  0.85940000  1
  N  N331  1  0.68610000  0.48830000  0.94400000  1
  N  N332  1  0.81390000  0.51170000  0.44400000  1
  N  N333  1  0.81610000  0.60400000  0.35940000  1
  N  N334  1  0.97520000  0.43340000  0.39400000  1
  N  N335  1  0.98150000  0.53220000  0.31190000  1
  O  O336  1  0.02910000  0.16180000  0.25960000  1
  O  O337  1  0.05420000  0.91340000  0.24280000  1
  O  O338  1  0.06330000  0.02110000  0.94370000  1
  O  O339  1  0.06690000  0.03180000  0.44540000  1
  O  O340  1  0.06990000  0.06880000  0.81360000  1
  O  O341  1  0.08980000  0.98280000  0.71810000  1
  O  O342  1  0.11770000  0.97570000  0.53230000  1
  O  O343  1  0.12130000  0.98670000  0.03330000  1
  O  O344  1  0.13340000  0.88140000  0.95080000  1
  O  O345  1  0.13770000  0.89290000  0.43640000  1
  O  O346  1  0.13770000  0.92710000  0.80410000  1
  O  O347  1  0.16100000  0.16300000  0.20310000  1
  O  O348  1  0.17560000  0.06040000  0.28130000  1
  O  O349  1  0.23230000  0.01810000  0.19380000  1
  O  O350  1  0.23870000  0.11720000  0.50800000  1
  O  O351  1  0.24430000  0.12740000  0.99480000  1
  O  O352  1  0.25570000  0.87260000  0.49480000  1
  O  O353  1  0.26130000  0.88280000  0.00800000  1
  O  O354  1  0.26770000  0.98190000  0.69380000  1
  O  O355  1  0.32440000  0.93960000  0.78130000  1
  O  O356  1  0.33900000  0.83700000  0.70310000  1
  O  O357  1  0.36230000  0.07290000  0.30410000  1
  O  O358  1  0.36230000  0.10710000  0.93640000  1
  O  O359  1  0.36660000  0.11860000  0.45080000  1
  O  O360  1  0.37870000  0.01330000  0.53330000  1
  O  O361  1  0.38230000  0.02430000  0.03230000  1
  O  O362  1  0.41020000  0.01720000  0.21810000  1
  O  O363  1  0.43010000  0.93120000  0.31360000  1
  O  O364  1  0.43310000  0.96820000  0.94540000  1
  O  O365  1  0.43670000  0.97890000  0.44370000  1
  O  O366  1  0.44580000  0.08660000  0.74280000  1
  O  O367  1  0.47090000  0.83820000  0.75960000  1
  O  O368  1  0.52910000  0.16180000  0.24040000  1
  O  O369  1  0.55420000  0.91340000  0.25720000  1
  O  O370  1  0.56330000  0.02110000  0.55630000  1
  O  O371  1  0.56690000  0.03180000  0.05460000  1
  O  O372  1  0.56990000  0.06880000  0.68640000  1
  O  O373  1  0.58980000  0.98280000  0.78190000  1
  O  O374  1  0.61770000  0.97570000  0.96770000  1
  O  O375  1  0.62130000  0.98670000  0.46670000  1
  O  O376  1  0.63340000  0.88140000  0.54920000  1
  O  O377  1  0.63770000  0.89290000  0.06360000  1
  O  O378  1  0.63770000  0.92710000  0.69590000  1
  O  O379  1  0.66100000  0.16300000  0.29690000  1
  O  O380  1  0.67560000  0.06040000  0.21870000  1
  O  O381  1  0.73230000  0.01810000  0.30620000  1
  O  O382  1  0.73870000  0.11720000  0.99200000  1
  O  O383  1  0.74430000  0.12740000  0.50520000  1
  O  O384  1  0.75570000  0.87260000  0.00520000  1
  O  O385  1  0.76130000  0.88280000  0.49200000  1
  O  O386  1  0.76770000  0.98190000  0.80620000  1
  O  O387  1  0.82440000  0.93960000  0.71870000  1
  O  O388  1  0.83900000  0.83700000  0.79690000  1
  O  O389  1  0.86230000  0.07290000  0.19590000  1
  O  O390  1  0.86230000  0.10710000  0.56360000  1
  O  O391  1  0.86660000  0.11860000  0.04920000  1
  O  O392  1  0.87870000  0.01330000  0.96670000  1
  O  O393  1  0.88230000  0.02430000  0.46770000  1
  O  O394  1  0.91020000  0.01720000  0.28190000  1
  O  O395  1  0.93010000  0.93120000  0.18640000  1
  O  O396  1  0.93310000  0.96820000  0.55460000  1
  O  O397  1  0.93670000  0.97890000  0.05630000  1
  O  O398  1  0.94580000  0.08660000  0.75720000  1
  O  O399  1  0.97090000  0.83820000  0.74040000  1
