# generated using pymatgen
data_EuH16C22(I2O5)2
_symmetry_space_group_name_H-M   'P 1'
_cell_length_a   9.69310000
_cell_length_b   12.64530000
_cell_length_c   26.41100000
_cell_angle_alpha   91.39100000
_cell_angle_beta   90.00000000
_cell_angle_gamma   90.00000000
_symmetry_Int_Tables_number   1
_chemical_formula_structural   EuH16C22(I2O5)2
_chemical_formula_sum   'Eu4 H64 C88 I16 O40'
_cell_volume   3236.29928070
_cell_formula_units_Z   4
loop_
 _symmetry_equiv_pos_site_id
 _symmetry_equiv_pos_as_xyz
  1  'x, y, z'
loop_
 _atom_site_type_symbol
 _atom_site_label
 _atom_site_symmetry_multiplicity
 _atom_site_fract_x
 _atom_site_fract_y
 _atom_site_fract_z
 _atom_site_occupancy
  Eu  Eu0  1  0.19708000  0.85827000  0.75328000  1
  Eu  Eu1  1  0.30292000  0.35827000  0.25328000  1
  Eu  Eu2  1  0.69708000  0.64173000  0.74672000  1
  Eu  Eu3  1  0.80292000  0.14173000  0.24672000  1
  H  H4  1  0.07120000  0.16250000  0.56400000  1
  H  H5  1  0.08450000  0.13750000  0.93700000  1
  H  H6  1  0.08770000  0.60510000  0.39890000  1
  H  H7  1  0.12210000  0.63180000  0.12040000  1
  H  H8  1  0.14280000  0.27170000  0.10120000  1
  H  H9  1  0.15880000  0.43420000  0.41820000  1
  H  H10  1  0.16000000  0.98310000  0.61960000  1
  H  H11  1  0.17080000  0.22760000  0.38800000  1
  H  H12  1  0.17230000  0.42770000  0.01700000  1
  H  H13  1  0.17240000  0.42570000  0.50610000  1
  H  H14  1  0.18530000  0.45890000  0.10200000  1
  H  H15  1  0.19270000  0.95430000  0.89380000  1
  H  H16  1  0.22210000  0.16130000  0.63470000  1
  H  H17  1  0.22970000  0.19200000  0.13520000  1
  H  H18  1  0.23890000  0.63450000  0.37980000  1
  H  H19  1  0.24370000  0.63060000  0.86340000  1
  H  H20  1  0.25630000  0.13060000  0.36340000  1
  H  H21  1  0.26110000  0.13450000  0.87980000  1
  H  H22  1  0.27030000  0.69200000  0.63520000  1
  H  H23  1  0.27790000  0.66130000  0.13470000  1
  H  H24  1  0.30730000  0.45430000  0.39380000  1
  H  H25  1  0.31470000  0.95890000  0.60200000  1
  H  H26  1  0.32760000  0.92570000  0.00610000  1
  H  H27  1  0.32770000  0.92770000  0.51700000  1
  H  H28  1  0.32920000  0.72760000  0.88800000  1
  H  H29  1  0.34000000  0.48310000  0.11960000  1
  H  H30  1  0.34120000  0.93420000  0.91820000  1
  H  H31  1  0.35720000  0.77170000  0.60120000  1
  H  H32  1  0.37790000  0.13180000  0.62040000  1
  H  H33  1  0.41230000  0.10510000  0.89890000  1
  H  H34  1  0.41550000  0.63750000  0.43700000  1
  H  H35  1  0.42880000  0.66250000  0.06400000  1
  H  H36  1  0.57120000  0.33750000  0.93600000  1
  H  H37  1  0.58450000  0.36250000  0.56300000  1
  H  H38  1  0.58770000  0.89490000  0.10110000  1
  H  H39  1  0.62210000  0.86820000  0.37960000  1
  H  H40  1  0.64280000  0.22830000  0.39880000  1
  H  H41  1  0.65880000  0.06580000  0.08180000  1
  H  H42  1  0.66000000  0.51690000  0.88040000  1
  H  H43  1  0.67080000  0.27240000  0.11200000  1
  H  H44  1  0.67230000  0.07230000  0.48300000  1
  H  H45  1  0.67240000  0.07430000  0.99390000  1
  H  H46  1  0.68530000  0.04110000  0.39800000  1
  H  H47  1  0.69270000  0.54570000  0.60620000  1
  H  H48  1  0.72210000  0.33870000  0.86530000  1
  H  H49  1  0.72970000  0.30800000  0.36480000  1
  H  H50  1  0.73890000  0.86550000  0.12020000  1
  H  H51  1  0.74370000  0.86940000  0.63660000  1
  H  H52  1  0.75630000  0.36940000  0.13660000  1
  H  H53  1  0.76110000  0.36550000  0.62020000  1
  H  H54  1  0.77030000  0.80800000  0.86480000  1
  H  H55  1  0.77790000  0.83870000  0.36530000  1
  H  H56  1  0.80730000  0.04570000  0.10620000  1
  H  H57  1  0.81470000  0.54110000  0.89800000  1
  H  H58  1  0.82760000  0.57430000  0.49390000  1
  H  H59  1  0.82770000  0.57230000  0.98300000  1
  H  H60  1  0.82920000  0.77240000  0.61200000  1
  H  H61  1  0.84000000  0.01690000  0.38040000  1
  H  H62  1  0.84120000  0.56580000  0.58180000  1
  H  H63  1  0.85720000  0.72830000  0.89880000  1
  H  H64  1  0.87790000  0.36820000  0.87960000  1
  H  H65  1  0.91230000  0.39490000  0.60110000  1
  H  H66  1  0.91550000  0.86250000  0.06300000  1
  H  H67  1  0.92880000  0.83750000  0.43600000  1
  C  C68  1  0.06310000  0.25700000  0.17300000  1
  C  C69  1  0.06830000  0.14110000  0.01386000  1
  C  C70  1  0.07490000  0.13790000  0.48747000  1
  C  C71  1  0.09070000  0.17510000  0.31925000  1
  C  C72  1  0.11070000  0.12010000  0.53763000  1
  C  C73  1  0.11240000  0.09500000  0.05837000  1
  C  C74  1  0.11800000  0.10640000  0.96703000  1
  C  C75  1  0.12940000  0.07580000  0.44799000  1
  C  C76  1  0.13090000  0.54380000  0.32830000  1
  C  C77  1  0.13530000  0.21500000  0.12631000  1
  C  C78  1  0.16230000  0.15900000  0.36943000  1
  C  C79  1  0.17050000  0.57650000  0.38140000  1
  C  C80  1  0.18140000  0.57520000  0.18930000  1
  C  C81  1  0.20430000  0.04020000  0.54950000  1
  C  C82  1  0.20820000  0.01330000  0.05434000  1
  C  C83  1  0.20830000  0.60410000  0.13520000  1
  C  C84  1  0.21630000  0.02660000  0.96363000  1
  C  C85  1  0.22310000  0.99820000  0.46046000  1
  C  C86  1  0.23080000  0.48840000  0.41290000  1
  C  C87  1  0.23840000  0.48080000  0.01000000  1
  C  C88  1  0.23940000  0.48050000  0.50777000  1
  C  C89  1  0.24200000  0.01390000  0.60310000  1
  C  C90  1  0.25800000  0.51390000  0.10310000  1
  C  C91  1  0.26060000  0.98050000  0.00777000  1
  C  C92  1  0.26160000  0.98080000  0.51000000  1
  C  C93  1  0.26920000  0.98840000  0.91290000  1
  C  C94  1  0.27690000  0.49820000  0.96046000  1
  C  C95  1  0.28370000  0.52660000  0.46363000  1
  C  C96  1  0.29170000  0.10410000  0.63520000  1
  C  C97  1  0.29180000  0.51330000  0.55434000  1
  C  C98  1  0.29570000  0.54020000  0.04950000  1
  C  C99  1  0.31860000  0.07520000  0.68930000  1
  C  C100  1  0.32950000  0.07650000  0.88140000  1
  C  C101  1  0.33770000  0.65900000  0.86943000  1
  C  C102  1  0.36470000  0.71500000  0.62631000  1
  C  C103  1  0.36910000  0.04380000  0.82830000  1
  C  C104  1  0.37060000  0.57580000  0.94799000  1
  C  C105  1  0.38200000  0.60640000  0.46703000  1
  C  C106  1  0.38760000  0.59500000  0.55837000  1
  C  C107  1  0.38930000  0.62010000  0.03763000  1
  C  C108  1  0.40930000  0.67510000  0.81925000  1
  C  C109  1  0.42510000  0.63790000  0.98747000  1
  C  C110  1  0.43170000  0.64110000  0.51386000  1
  C  C111  1  0.43690000  0.75700000  0.67300000  1
  C  C112  1  0.56310000  0.24300000  0.32700000  1
  C  C113  1  0.56830000  0.35890000  0.48614000  1
  C  C114  1  0.57490000  0.36210000  0.01253000  1
  C  C115  1  0.59070000  0.32490000  0.18075000  1
  C  C116  1  0.61070000  0.37990000  0.96237000  1
  C  C117  1  0.61240000  0.40500000  0.44163000  1
  C  C118  1  0.61800000  0.39360000  0.53297000  1
  C  C119  1  0.62940000  0.42420000  0.05201000  1
  C  C120  1  0.63090000  0.95620000  0.17170000  1
  C  C121  1  0.63530000  0.28500000  0.37369000  1
  C  C122  1  0.66230000  0.34100000  0.13057000  1
  C  C123  1  0.67050000  0.92350000  0.11860000  1
  C  C124  1  0.68140000  0.92480000  0.31070000  1
  C  C125  1  0.70430000  0.45980000  0.95050000  1
  C  C126  1  0.70820000  0.48670000  0.44566000  1
  C  C127  1  0.70830000  0.89590000  0.36480000  1
  C  C128  1  0.71630000  0.47340000  0.53637000  1
  C  C129  1  0.72310000  0.50180000  0.03954000  1
  C  C130  1  0.73080000  0.01160000  0.08710000  1
  C  C131  1  0.73840000  0.01920000  0.49000000  1
  C  C132  1  0.73940000  0.01950000  0.99223000  1
  C  C133  1  0.74200000  0.48610000  0.89690000  1
  C  C134  1  0.75800000  0.98610000  0.39690000  1
  C  C135  1  0.76060000  0.51950000  0.49223000  1
  C  C136  1  0.76160000  0.51920000  0.99000000  1
  C  C137  1  0.76920000  0.51160000  0.58710000  1
  C  C138  1  0.77690000  0.00180000  0.53954000  1
  C  C139  1  0.78370000  0.97340000  0.03637000  1
  C  C140  1  0.79170000  0.39590000  0.86480000  1
  C  C141  1  0.79180000  0.98670000  0.94566000  1
  C  C142  1  0.79570000  0.95980000  0.45050000  1
  C  C143  1  0.81860000  0.42480000  0.81070000  1
  C  C144  1  0.82950000  0.42350000  0.61860000  1
  C  C145  1  0.83770000  0.84100000  0.63057000  1
  C  C146  1  0.86470000  0.78500000  0.87369000  1
  C  C147  1  0.86910000  0.45620000  0.67170000  1
  C  C148  1  0.87060000  0.92420000  0.55201000  1
  C  C149  1  0.88200000  0.89360000  0.03297000  1
  C  C150  1  0.88760000  0.90500000  0.94163000  1
  C  C151  1  0.88930000  0.87990000  0.46237000  1
  C  C152  1  0.90930000  0.82490000  0.68075000  1
  C  C153  1  0.92510000  0.86210000  0.51253000  1
  C  C154  1  0.93170000  0.85890000  0.98614000  1
  C  C155  1  0.93690000  0.74300000  0.82700000  1
  I  I156  1  0.06241000  0.73994000  0.52831000  1
  I  I157  1  0.07661000  0.73657000  0.98284000  1
  I  I158  1  0.19627000  0.39773000  0.90336000  1
  I  I159  1  0.23583000  0.43409000  0.61990000  1
  I  I160  1  0.26417000  0.93409000  0.11990000  1
  I  I161  1  0.30373000  0.89773000  0.40336000  1
  I  I162  1  0.42339000  0.23657000  0.48284000  1
  I  I163  1  0.43759000  0.23994000  0.02831000  1
  I  I164  1  0.56241000  0.76006000  0.97169000  1
  I  I165  1  0.57661000  0.76343000  0.51716000  1
  I  I166  1  0.69627000  0.10227000  0.59664000  1
  I  I167  1  0.73583000  0.06591000  0.88010000  1
  I  I168  1  0.76417000  0.56591000  0.38010000  1
  I  I169  1  0.80373000  0.60227000  0.09664000  1
  I  I170  1  0.92339000  0.26343000  0.01716000  1
  I  I171  1  0.93759000  0.26006000  0.47169000  1
  O  O172  1  0.01910000  0.87110000  0.69080000  1
  O  O173  1  0.04640000  0.78500000  0.81313000  1
  O  O174  1  0.05940000  0.12700000  0.10463000  1
  O  O175  1  0.06700000  0.60390000  0.20874000  1
  O  O176  1  0.07650000  0.61900000  0.30295000  1
  O  O177  1  0.08400000  0.08630000  0.39905000  1
  O  O178  1  0.12320000  0.33470000  0.19488000  1
  O  O179  1  0.15010000  0.23930000  0.29120000  1
  O  O180  1  0.15210000  0.45480000  0.31084000  1
  O  O181  1  0.22970000  0.02590000  0.71329000  1
  O  O182  1  0.27030000  0.52590000  0.21329000  1
  O  O183  1  0.34790000  0.95480000  0.81084000  1
  O  O184  1  0.34990000  0.73930000  0.79120000  1
  O  O185  1  0.37680000  0.83470000  0.69488000  1
  O  O186  1  0.41600000  0.58630000  0.89905000  1
  O  O187  1  0.42350000  0.11900000  0.80295000  1
  O  O188  1  0.43300000  0.10390000  0.70874000  1
  O  O189  1  0.44060000  0.62700000  0.60463000  1
  O  O190  1  0.45360000  0.28500000  0.31313000  1
  O  O191  1  0.48090000  0.37110000  0.19080000  1
  O  O192  1  0.51910000  0.62890000  0.80920000  1
  O  O193  1  0.54640000  0.71500000  0.68687000  1
  O  O194  1  0.55940000  0.37300000  0.39537000  1
  O  O195  1  0.56700000  0.89610000  0.29126000  1
  O  O196  1  0.57650000  0.88100000  0.19705000  1
  O  O197  1  0.58400000  0.41370000  0.10095000  1
  O  O198  1  0.62320000  0.16530000  0.30512000  1
  O  O199  1  0.65010000  0.26070000  0.20880000  1
  O  O200  1  0.65210000  0.04520000  0.18916000  1
  O  O201  1  0.72970000  0.47410000  0.78671000  1
  O  O202  1  0.77030000  0.97410000  0.28671000  1
  O  O203  1  0.84790000  0.54520000  0.68916000  1
  O  O204  1  0.84990000  0.76070000  0.70880000  1
  O  O205  1  0.87680000  0.66530000  0.80512000  1
  O  O206  1  0.91600000  0.91370000  0.60095000  1
  O  O207  1  0.92350000  0.38100000  0.69705000  1
  O  O208  1  0.93300000  0.39610000  0.79126000  1
  O  O209  1  0.94060000  0.87300000  0.89537000  1
  O  O210  1  0.95360000  0.21500000  0.18687000  1
  O  O211  1  0.98090000  0.12890000  0.30920000  1
