# generated using pymatgen
data_ErH3C9(NO2)3
_symmetry_space_group_name_H-M   'P 1'
_cell_length_a   6.03270000
_cell_length_b   12.77520000
_cell_length_c   13.17750000
_cell_angle_alpha   118.99000000
_cell_angle_beta   90.57500000
_cell_angle_gamma   91.67000000
_symmetry_Int_Tables_number   1
_chemical_formula_structural   ErH3C9(NO2)3
_chemical_formula_sum   'Er2 H6 C18 N6 O12'
_cell_volume   887.61239961
_cell_formula_units_Z   2
loop_
 _symmetry_equiv_pos_site_id
 _symmetry_equiv_pos_as_xyz
  1  'x, y, z'
loop_
 _atom_site_type_symbol
 _atom_site_label
 _atom_site_symmetry_multiplicity
 _atom_site_fract_x
 _atom_site_fract_y
 _atom_site_fract_z
 _atom_site_occupancy
  Er  Er0  1  0.27633000  0.16011000  0.32198000  1
  Er  Er1  1  0.72367000  0.83989000  0.67802000  1
  H  H2  1  0.14470000  0.05850000  0.01560000  1
  H  H3  1  0.19210000  0.03370000  0.66190000  1
  H  H4  1  0.42230000  0.61660000  0.42040000  1
  H  H5  1  0.57770000  0.38340000  0.57960000  1
  H  H6  1  0.80790000  0.96630000  0.33810000  1
  H  H7  1  0.85530000  0.94150000  0.98440000  1
  C  C8  1  0.11070000  0.01860000  0.59550000  1
  C  C9  1  0.18790000  0.06590000  0.52670000  1
  C  C10  1  0.23870000  0.90580000  0.79270000  1
  C  C11  1  0.24960000  0.39360000  0.28780000  1
  C  C12  1  0.29010000  0.03460000  0.01090000  1
  C  C13  1  0.37550000  0.96030000  0.90340000  1
  C  C14  1  0.38500000  0.45070000  0.40010000  1
  C  C15  1  0.40180000  0.13970000  0.55380000  1
  C  C16  1  0.45570000  0.57020000  0.45490000  1
  C  C17  1  0.54430000  0.42980000  0.54510000  1
  C  C18  1  0.59820000  0.86030000  0.44620000  1
  C  C19  1  0.61500000  0.54930000  0.59990000  1
  C  C20  1  0.62450000  0.03970000  0.09660000  1
  C  C21  1  0.70990000  0.96540000  0.98910000  1
  C  C22  1  0.75040000  0.60640000  0.71220000  1
  C  C23  1  0.76130000  0.09420000  0.20730000  1
  C  C24  1  0.81210000  0.93410000  0.47330000  1
  C  C25  1  0.88930000  0.98140000  0.40450000  1
  N  N26  1  0.07680000  0.04790000  0.43110000  1
  N  N27  1  0.41400000  0.07300000  0.10910000  1
  N  N28  1  0.43050000  0.37950000  0.44500000  1
  N  N29  1  0.56950000  0.62050000  0.55500000  1
  N  N30  1  0.58600000  0.92700000  0.89090000  1
  N  N31  1  0.92320000  0.95210000  0.56890000  1
  O  O32  1  0.03950000  0.93210000  0.79660000  1
  O  O33  1  0.19190000  0.28500000  0.24810000  1
  O  O34  1  0.20260000  0.45660000  0.24330000  1
  O  O35  1  0.33690000  0.83450000  0.70270000  1
  O  O36  1  0.44900000  0.17900000  0.48550000  1
  O  O37  1  0.48080000  0.84410000  0.36130000  1
  O  O38  1  0.51920000  0.15590000  0.63870000  1
  O  O39  1  0.55100000  0.82100000  0.51450000  1
  O  O40  1  0.66310000  0.16550000  0.29730000  1
  O  O41  1  0.79740000  0.54340000  0.75670000  1
  O  O42  1  0.80810000  0.71500000  0.75190000  1
  O  O43  1  0.96050000  0.06790000  0.20340000  1
