# generated using pymatgen
data_CdH28C21SN9
_symmetry_space_group_name_H-M   'P 1'
_cell_length_a   19.52200000
_cell_length_b   19.52200000
_cell_length_c   33.79100000
_cell_angle_alpha   90.00000000
_cell_angle_beta   90.00000000
_cell_angle_gamma   90.00000000
_symmetry_Int_Tables_number   1
_chemical_formula_structural   CdH28C21SN9
_chemical_formula_sum   'Cd16 H448 C336 S16 N144'
_cell_volume   12878.03678284
_cell_formula_units_Z   16
loop_
 _symmetry_equiv_pos_site_id
 _symmetry_equiv_pos_as_xyz
  1  'x, y, z'
loop_
 _atom_site_type_symbol
 _atom_site_label
 _atom_site_symmetry_multiplicity
 _atom_site_fract_x
 _atom_site_fract_y
 _atom_site_fract_z
 _atom_site_occupancy
  Cd  Cd0  1  0.10872000  0.82015000  0.50000000  1
  Cd  Cd1  1  0.15790000  0.35578000  0.24915000  1
  Cd  Cd2  1  0.15790000  0.35578000  0.75085000  1
  Cd  Cd3  1  0.17985000  0.10872000  0.00000000  1
  Cd  Cd4  1  0.32864000  0.62227000  0.00000000  1
  Cd  Cd5  1  0.35578000  0.84210000  0.25085000  1
  Cd  Cd6  1  0.35578000  0.84210000  0.74915000  1
  Cd  Cd7  1  0.37773000  0.32864000  0.50000000  1
  Cd  Cd8  1  0.62227000  0.67136000  0.50000000  1
  Cd  Cd9  1  0.64422000  0.15790000  0.25085000  1
  Cd  Cd10  1  0.64422000  0.15790000  0.74915000  1
  Cd  Cd11  1  0.67136000  0.37773000  0.00000000  1
  Cd  Cd12  1  0.82015000  0.89128000  0.00000000  1
  Cd  Cd13  1  0.84210000  0.64422000  0.24915000  1
  Cd  Cd14  1  0.84210000  0.64422000  0.75085000  1
  Cd  Cd15  1  0.89128000  0.17985000  0.50000000  1
  H  H16  1  0.00680000  0.64090000  0.27610000  1
  H  H17  1  0.00680000  0.64090000  0.72390000  1
  H  H18  1  0.00970000  0.34150000  0.44290000  1
  H  H19  1  0.00970000  0.34150000  0.55710000  1
  H  H20  1  0.01160000  0.11850000  0.33050000  1
  H  H21  1  0.01160000  0.11850000  0.66950000  1
  H  H22  1  0.01670000  0.93690000  0.36060000  1
  H  H23  1  0.01670000  0.93690000  0.63940000  1
  H  H24  1  0.01860000  0.13870000  0.03580000  1
  H  H25  1  0.01860000  0.13870000  0.96420000  1
  H  H26  1  0.01920000  0.36540000  0.07990000  1
  H  H27  1  0.01920000  0.36540000  0.92010000  1
  H  H28  1  0.02330000  0.89920000  0.43240000  1
  H  H29  1  0.02330000  0.89920000  0.56760000  1
  H  H30  1  0.03430000  0.43130000  0.10580000  1
  H  H31  1  0.03430000  0.43130000  0.89420000  1
  H  H32  1  0.03500000  0.60950000  0.11160000  1
  H  H33  1  0.03500000  0.60950000  0.88840000  1
  H  H34  1  0.04700000  0.64770000  0.40990000  1
  H  H35  1  0.04700000  0.64770000  0.59010000  1
  H  H36  1  0.04790000  0.40400000  0.18230000  1
  H  H37  1  0.04790000  0.40400000  0.81770000  1
  H  H38  1  0.06000000  0.80220000  0.12120000  1
  H  H39  1  0.06000000  0.80220000  0.87880000  1
  H  H40  1  0.06170000  0.08400000  0.36150000  1
  H  H41  1  0.06170000  0.08400000  0.63850000  1
  H  H42  1  0.06310000  0.01670000  0.13940000  1
  H  H43  1  0.06310000  0.01670000  0.86060000  1
  H  H44  1  0.06820000  0.67380000  0.45260000  1
  H  H45  1  0.06820000  0.67380000  0.54740000  1
  H  H46  1  0.07600000  0.75760000  0.08310000  1
  H  H47  1  0.07600000  0.75760000  0.91690000  1
  H  H48  1  0.07680000  0.83870000  0.08050000  1
  H  H49  1  0.07680000  0.83870000  0.91950000  1
  H  H50  1  0.07690000  0.52300000  0.38180000  1
  H  H51  1  0.07690000  0.52300000  0.61820000  1
  H  H52  1  0.08040000  0.45300000  0.40550000  1
  H  H53  1  0.08040000  0.45300000  0.59450000  1
  H  H54  1  0.08400000  0.93830000  0.13850000  1
  H  H55  1  0.08400000  0.93830000  0.86150000  1
  H  H56  1  0.09220000  0.45930000  0.31710000  1
  H  H57  1  0.09220000  0.45930000  0.68290000  1
  H  H58  1  0.10080000  0.02330000  0.06760000  1
  H  H59  1  0.10080000  0.02330000  0.93240000  1
  H  H60  1  0.10670000  0.62610000  0.32900000  1
  H  H61  1  0.10670000  0.62610000  0.67100000  1
  H  H62  1  0.11610000  0.69270000  0.35520000  1
  H  H63  1  0.11610000  0.69270000  0.64480000  1
  H  H64  1  0.11850000  0.98840000  0.16950000  1
  H  H65  1  0.11850000  0.98840000  0.83050000  1
  H  H66  1  0.12090000  0.16080000  0.17310000  1
  H  H67  1  0.12090000  0.16080000  0.82690000  1
  H  H68  1  0.12880000  0.69590000  0.30890000  1
  H  H69  1  0.12880000  0.69590000  0.69110000  1
  H  H70  1  0.13230000  0.19580000  0.21490000  1
  H  H71  1  0.13230000  0.19580000  0.78510000  1
  H  H72  1  0.13400000  0.51190000  0.41450000  1
  H  H73  1  0.13400000  0.51190000  0.58550000  1
  H  H74  1  0.13820000  0.20470000  0.36000000  1
  H  H75  1  0.13820000  0.20470000  0.64000000  1
  H  H76  1  0.13860000  0.62720000  0.18580000  1
  H  H77  1  0.13860000  0.62720000  0.81420000  1
  H  H78  1  0.13870000  0.98140000  0.46420000  1
  H  H79  1  0.13870000  0.98140000  0.53580000  1
  H  H80  1  0.14980000  0.52240000  0.08230000  1
  H  H81  1  0.14980000  0.52240000  0.91770000  1
  H  H82  1  0.15240000  0.52130000  0.22660000  1
  H  H83  1  0.15240000  0.52130000  0.77340000  1
  H  H84  1  0.16080000  0.87910000  0.32690000  1
  H  H85  1  0.16080000  0.87910000  0.67310000  1
  H  H86  1  0.16110000  0.20570000  0.31510000  1
  H  H87  1  0.16110000  0.20570000  0.68490000  1
  H  H88  1  0.16130000  0.07680000  0.41950000  1
  H  H89  1  0.16130000  0.07680000  0.58050000  1
  H  H90  1  0.16590000  0.60100000  0.07550000  1
  H  H91  1  0.16590000  0.60100000  0.92450000  1
  H  H92  1  0.17430000  0.54830000  0.04020000  1
  H  H93  1  0.17430000  0.54830000  0.95980000  1
  H  H94  1  0.17900000  0.26830000  0.34300000  1
  H  H95  1  0.17900000  0.26830000  0.65700000  1
  H  H96  1  0.18380000  0.63330000  0.14700000  1
  H  H97  1  0.18380000  0.63330000  0.85300000  1
  H  H98  1  0.18770000  0.20460000  0.18110000  1
  H  H99  1  0.18770000  0.20460000  0.81890000  1
  H  H100  1  0.19410000  0.77430000  0.39660000  1
  H  H101  1  0.19410000  0.77430000  0.60340000  1
  H  H102  1  0.19580000  0.86770000  0.28510000  1
  H  H103  1  0.19580000  0.86770000  0.71490000  1
  H  H104  1  0.19780000  0.06000000  0.37880000  1
  H  H105  1  0.19780000  0.06000000  0.62120000  1
  H  H106  1  0.20460000  0.81230000  0.31890000  1
  H  H107  1  0.20460000  0.81230000  0.68110000  1
  H  H108  1  0.20470000  0.86180000  0.14000000  1
  H  H109  1  0.20470000  0.86180000  0.86000000  1
  H  H110  1  0.20570000  0.83890000  0.18490000  1
  H  H111  1  0.20570000  0.83890000  0.81510000  1
  H  H112  1  0.21140000  0.27180000  0.09290000  1
  H  H113  1  0.21140000  0.27180000  0.90710000  1
  H  H114  1  0.21770000  0.64450000  0.18910000  1
  H  H115  1  0.21770000  0.64450000  0.81090000  1
  H  H116  1  0.21940000  0.76890000  0.44100000  1
  H  H117  1  0.21940000  0.76890000  0.55900000  1
  H  H118  1  0.22130000  0.30860000  0.40320000  1
  H  H119  1  0.22130000  0.30860000  0.59680000  1
  H  H120  1  0.22570000  0.19410000  0.10340000  1
  H  H121  1  0.22570000  0.19410000  0.89660000  1
  H  H122  1  0.23110000  0.21940000  0.05900000  1
  H  H123  1  0.23110000  0.21940000  0.94100000  1
  H  H124  1  0.24240000  0.07600000  0.41690000  1
  H  H125  1  0.24240000  0.07600000  0.58310000  1
  H  H126  1  0.24990000  0.36230000  0.12990000  1
  H  H127  1  0.24990000  0.36230000  0.87010000  1
  H  H128  1  0.25010000  0.33410000  0.17390000  1
  H  H129  1  0.25010000  0.33410000  0.82610000  1
  H  H130  1  0.25320000  0.58780000  0.41430000  1
  H  H131  1  0.25320000  0.58780000  0.58570000  1
  H  H132  1  0.26650000  0.28580000  0.43990000  1
  H  H133  1  0.26650000  0.28580000  0.56010000  1
  H  H134  1  0.26830000  0.82100000  0.15700000  1
  H  H135  1  0.26830000  0.82100000  0.84300000  1
  H  H136  1  0.27180000  0.78860000  0.40710000  1
  H  H137  1  0.27180000  0.78860000  0.59290000  1
  H  H138  1  0.28580000  0.73350000  0.06010000  1
  H  H139  1  0.28580000  0.73350000  0.93990000  1
  H  H140  1  0.29030000  0.70040000  0.10280000  1
  H  H141  1  0.29030000  0.70040000  0.89720000  1
  H  H142  1  0.29960000  0.29030000  0.39720000  1
  H  H143  1  0.29960000  0.29030000  0.60280000  1
  H  H144  1  0.30380000  0.39180000  0.28350000  1
  H  H145  1  0.30380000  0.39180000  0.71650000  1
  H  H146  1  0.30390000  0.57240000  0.37870000  1
  H  H147  1  0.30390000  0.57240000  0.62130000  1
  H  H148  1  0.30410000  0.12880000  0.19110000  1
  H  H149  1  0.30410000  0.12880000  0.80890000  1
  H  H150  1  0.30730000  0.11610000  0.14480000  1
  H  H151  1  0.30730000  0.11610000  0.85520000  1
  H  H152  1  0.30860000  0.77870000  0.09680000  1
  H  H153  1  0.30860000  0.77870000  0.90320000  1
  H  H154  1  0.31440000  0.37460000  0.15740000  1
  H  H155  1  0.31440000  0.37460000  0.84260000  1
  H  H156  1  0.31920000  0.35490000  0.32430000  1
  H  H157  1  0.31920000  0.35490000  0.67570000  1
  H  H158  1  0.32620000  0.06820000  0.04740000  1
  H  H159  1  0.32620000  0.06820000  0.95260000  1
  H  H160  1  0.33340000  0.59200000  0.42090000  1
  H  H161  1  0.33340000  0.59200000  0.57910000  1
  H  H162  1  0.33410000  0.74990000  0.32610000  1
  H  H163  1  0.33410000  0.74990000  0.67390000  1
  H  H164  1  0.33990000  0.43270000  0.31820000  1
  H  H165  1  0.33990000  0.43270000  0.68180000  1
  H  H166  1  0.34150000  0.99030000  0.05710000  1
  H  H167  1  0.34150000  0.99030000  0.94290000  1
  H  H168  1  0.35230000  0.04700000  0.09010000  1
  H  H169  1  0.35230000  0.04700000  0.90990000  1
  H  H170  1  0.35490000  0.68080000  0.17570000  1
  H  H171  1  0.35490000  0.68080000  0.82430000  1
  H  H172  1  0.35540000  0.49400000  0.46570000  1
  H  H173  1  0.35540000  0.49400000  0.53430000  1
  H  H174  1  0.35550000  0.21770000  0.31090000  1
  H  H175  1  0.35550000  0.21770000  0.68910000  1
  H  H176  1  0.35910000  0.00680000  0.22390000  1
  H  H177  1  0.35910000  0.00680000  0.77610000  1
  H  H178  1  0.36230000  0.75010000  0.37010000  1
  H  H179  1  0.36230000  0.75010000  0.62990000  1
  H  H180  1  0.36540000  0.98080000  0.42010000  1
  H  H181  1  0.36540000  0.98080000  0.57990000  1
  H  H182  1  0.36670000  0.18380000  0.35300000  1
  H  H183  1  0.36670000  0.18380000  0.64700000  1
  H  H184  1  0.37280000  0.13860000  0.31420000  1
  H  H185  1  0.37280000  0.13860000  0.68580000  1
  H  H186  1  0.37390000  0.10670000  0.17100000  1
  H  H187  1  0.37390000  0.10670000  0.82900000  1
  H  H188  1  0.37460000  0.68560000  0.34260000  1
  H  H189  1  0.37460000  0.68560000  0.65740000  1
  H  H190  1  0.39050000  0.03500000  0.38840000  1
  H  H191  1  0.39050000  0.03500000  0.61160000  1
  H  H192  1  0.39180000  0.69620000  0.21650000  1
  H  H193  1  0.39180000  0.69620000  0.78350000  1
  H  H194  1  0.39290000  0.44460000  0.15000000  1
  H  H195  1  0.39290000  0.44460000  0.85000000  1
  H  H196  1  0.39900000  0.16590000  0.42450000  1
  H  H197  1  0.39900000  0.16590000  0.57550000  1
  H  H198  1  0.40050000  0.52170000  0.16380000  1
  H  H199  1  0.40050000  0.52170000  0.83620000  1
  H  H200  1  0.40130000  0.52980000  0.06550000  1
  H  H201  1  0.40130000  0.52980000  0.93450000  1
  H  H202  1  0.40400000  0.95210000  0.31770000  1
  H  H203  1  0.40400000  0.95210000  0.68230000  1
  H  H204  1  0.40800000  0.33340000  0.07910000  1
  H  H205  1  0.40800000  0.33340000  0.92090000  1
  H  H206  1  0.41220000  0.25320000  0.08570000  1
  H  H207  1  0.41220000  0.25320000  0.91430000  1
  H  H208  1  0.42760000  0.30390000  0.12130000  1
  H  H209  1  0.42760000  0.30390000  0.87870000  1
  H  H210  1  0.43130000  0.96570000  0.39420000  1
  H  H211  1  0.43130000  0.96570000  0.60580000  1
  H  H212  1  0.43270000  0.66010000  0.18180000  1
  H  H213  1  0.43270000  0.66010000  0.81820000  1
  H  H214  1  0.44460000  0.60710000  0.35000000  1
  H  H215  1  0.44460000  0.60710000  0.65000000  1
  H  H216  1  0.44540000  0.49370000  0.12830000  1
  H  H217  1  0.44540000  0.49370000  0.87170000  1
  H  H218  1  0.45170000  0.17430000  0.45980000  1
  H  H219  1  0.45170000  0.17430000  0.54020000  1
  H  H220  1  0.45300000  0.91960000  0.09450000  1
  H  H221  1  0.45300000  0.91960000  0.90550000  1
  H  H222  1  0.45930000  0.90780000  0.18290000  1
  H  H223  1  0.45930000  0.90780000  0.81710000  1
  H  H224  1  0.47020000  0.40130000  0.43450000  1
  H  H225  1  0.47020000  0.40130000  0.56550000  1
  H  H226  1  0.47700000  0.07690000  0.11820000  1
  H  H227  1  0.47700000  0.07690000  0.88180000  1
  H  H228  1  0.47760000  0.14980000  0.41770000  1
  H  H229  1  0.47760000  0.14980000  0.58230000  1
  H  H230  1  0.47830000  0.40050000  0.33620000  1
  H  H231  1  0.47830000  0.40050000  0.66380000  1
  H  H232  1  0.47870000  0.15240000  0.27340000  1
  H  H233  1  0.47870000  0.15240000  0.72660000  1
  H  H234  1  0.48810000  0.13400000  0.08550000  1
  H  H235  1  0.48810000  0.13400000  0.91450000  1
  H  H236  1  0.49370000  0.55460000  0.37170000  1
  H  H237  1  0.49370000  0.55460000  0.62830000  1
  H  H238  1  0.49400000  0.64460000  0.03430000  1
  H  H239  1  0.49400000  0.64460000  0.96570000  1
  H  H240  1  0.50600000  0.35540000  0.03430000  1
  H  H241  1  0.50600000  0.35540000  0.96570000  1
  H  H242  1  0.50630000  0.44540000  0.37170000  1
  H  H243  1  0.50630000  0.44540000  0.62830000  1
  H  H244  1  0.51190000  0.86600000  0.08550000  1
  H  H245  1  0.51190000  0.86600000  0.91450000  1
  H  H246  1  0.52130000  0.84760000  0.27340000  1
  H  H247  1  0.52130000  0.84760000  0.72660000  1
  H  H248  1  0.52170000  0.59950000  0.33620000  1
  H  H249  1  0.52170000  0.59950000  0.66380000  1
  H  H250  1  0.52240000  0.85020000  0.41770000  1
  H  H251  1  0.52240000  0.85020000  0.58230000  1
  H  H252  1  0.52300000  0.92310000  0.11820000  1
  H  H253  1  0.52300000  0.92310000  0.88180000  1
  H  H254  1  0.52980000  0.59870000  0.43450000  1
  H  H255  1  0.52980000  0.59870000  0.56550000  1
  H  H256  1  0.54070000  0.09220000  0.18290000  1
  H  H257  1  0.54070000  0.09220000  0.81710000  1
  H  H258  1  0.54700000  0.08040000  0.09450000  1
  H  H259  1  0.54700000  0.08040000  0.90550000  1
  H  H260  1  0.54830000  0.82570000  0.45980000  1
  H  H261  1  0.54830000  0.82570000  0.54020000  1
  H  H262  1  0.55460000  0.50630000  0.12830000  1
  H  H263  1  0.55460000  0.50630000  0.87170000  1
  H  H264  1  0.55540000  0.39290000  0.35000000  1
  H  H265  1  0.55540000  0.39290000  0.65000000  1
  H  H266  1  0.56730000  0.33990000  0.18180000  1
  H  H267  1  0.56730000  0.33990000  0.81820000  1
  H  H268  1  0.56870000  0.03430000  0.39420000  1
  H  H269  1  0.56870000  0.03430000  0.60580000  1
  H  H270  1  0.57240000  0.69610000  0.12130000  1
  H  H271  1  0.57240000  0.69610000  0.87870000  1
  H  H272  1  0.58780000  0.74680000  0.08570000  1
  H  H273  1  0.58780000  0.74680000  0.91430000  1
  H  H274  1  0.59200000  0.66666667  0.07910000  1
  H  H275  1  0.59200000  0.66666667  0.92090000  1
  H  H276  1  0.59600000  0.04790000  0.31770000  1
  H  H277  1  0.59600000  0.04790000  0.68230000  1
  H  H278  1  0.59870000  0.47020000  0.06550000  1
  H  H279  1  0.59870000  0.47020000  0.93450000  1
  H  H280  1  0.59950000  0.47830000  0.16380000  1
  H  H281  1  0.59950000  0.47830000  0.83620000  1
  H  H282  1  0.60100000  0.83410000  0.42450000  1
  H  H283  1  0.60100000  0.83410000  0.57550000  1
  H  H284  1  0.60710000  0.55540000  0.15000000  1
  H  H285  1  0.60710000  0.55540000  0.85000000  1
  H  H286  1  0.60820000  0.30380000  0.21650000  1
  H  H287  1  0.60820000  0.30380000  0.78350000  1
  H  H288  1  0.60950000  0.96500000  0.38840000  1
  H  H289  1  0.60950000  0.96500000  0.61160000  1
  H  H290  1  0.62540000  0.31440000  0.34260000  1
  H  H291  1  0.62540000  0.31440000  0.65740000  1
  H  H292  1  0.62610000  0.89330000  0.17100000  1
  H  H293  1  0.62610000  0.89330000  0.82900000  1
  H  H294  1  0.62720000  0.86140000  0.31420000  1
  H  H295  1  0.62720000  0.86140000  0.68580000  1
  H  H296  1  0.63330000  0.81620000  0.35300000  1
  H  H297  1  0.63330000  0.81620000  0.64700000  1
  H  H298  1  0.63460000  0.01920000  0.42010000  1
  H  H299  1  0.63460000  0.01920000  0.57990000  1
  H  H300  1  0.63770000  0.24990000  0.37010000  1
  H  H301  1  0.63770000  0.24990000  0.62990000  1
  H  H302  1  0.64090000  0.99320000  0.22390000  1
  H  H303  1  0.64090000  0.99320000  0.77610000  1
  H  H304  1  0.64450000  0.78230000  0.31090000  1
  H  H305  1  0.64450000  0.78230000  0.68910000  1
  H  H306  1  0.64460000  0.50600000  0.46570000  1
  H  H307  1  0.64460000  0.50600000  0.53430000  1
  H  H308  1  0.64510000  0.31920000  0.17570000  1
  H  H309  1  0.64510000  0.31920000  0.82430000  1
  H  H310  1  0.64770000  0.95300000  0.09010000  1
  H  H311  1  0.64770000  0.95300000  0.90990000  1
  H  H312  1  0.65850000  0.00970000  0.05710000  1
  H  H313  1  0.65850000  0.00970000  0.94290000  1
  H  H314  1  0.66010000  0.56730000  0.31820000  1
  H  H315  1  0.66010000  0.56730000  0.68180000  1
  H  H316  1  0.66590000  0.25010000  0.32610000  1
  H  H317  1  0.66590000  0.25010000  0.67390000  1
  H  H318  1  0.66666667  0.40800000  0.42090000  1
  H  H319  1  0.66666667  0.40800000  0.57910000  1
  H  H320  1  0.67380000  0.93180000  0.04740000  1
  H  H321  1  0.67380000  0.93180000  0.95260000  1
  H  H322  1  0.68080000  0.64510000  0.32430000  1
  H  H323  1  0.68080000  0.64510000  0.67570000  1
  H  H324  1  0.68560000  0.62540000  0.15740000  1
  H  H325  1  0.68560000  0.62540000  0.84260000  1
  H  H326  1  0.69140000  0.22130000  0.09680000  1
  H  H327  1  0.69140000  0.22130000  0.90320000  1
  H  H328  1  0.69270000  0.88390000  0.14480000  1
  H  H329  1  0.69270000  0.88390000  0.85520000  1
  H  H330  1  0.69590000  0.87120000  0.19110000  1
  H  H331  1  0.69590000  0.87120000  0.80890000  1
  H  H332  1  0.69610000  0.42760000  0.37870000  1
  H  H333  1  0.69610000  0.42760000  0.62130000  1
  H  H334  1  0.69620000  0.60820000  0.28350000  1
  H  H335  1  0.69620000  0.60820000  0.71650000  1
  H  H336  1  0.70040000  0.70970000  0.39720000  1
  H  H337  1  0.70040000  0.70970000  0.60280000  1
  H  H338  1  0.70970000  0.29960000  0.10280000  1
  H  H339  1  0.70970000  0.29960000  0.89720000  1
  H  H340  1  0.71420000  0.26650000  0.06010000  1
  H  H341  1  0.71420000  0.26650000  0.93990000  1
  H  H342  1  0.72820000  0.21140000  0.40710000  1
  H  H343  1  0.72820000  0.21140000  0.59290000  1
  H  H344  1  0.73170000  0.17900000  0.15700000  1
  H  H345  1  0.73170000  0.17900000  0.84300000  1
  H  H346  1  0.73350000  0.71420000  0.43990000  1
  H  H347  1  0.73350000  0.71420000  0.56010000  1
  H  H348  1  0.74680000  0.41220000  0.41430000  1
  H  H349  1  0.74680000  0.41220000  0.58570000  1
  H  H350  1  0.74990000  0.66590000  0.17390000  1
  H  H351  1  0.74990000  0.66590000  0.82610000  1
  H  H352  1  0.75010000  0.63770000  0.12990000  1
  H  H353  1  0.75010000  0.63770000  0.87010000  1
  H  H354  1  0.75760000  0.92400000  0.41690000  1
  H  H355  1  0.75760000  0.92400000  0.58310000  1
  H  H356  1  0.76890000  0.78060000  0.05900000  1
  H  H357  1  0.76890000  0.78060000  0.94100000  1
  H  H358  1  0.77430000  0.80590000  0.10340000  1
  H  H359  1  0.77430000  0.80590000  0.89660000  1
  H  H360  1  0.77870000  0.69140000  0.40320000  1
  H  H361  1  0.77870000  0.69140000  0.59680000  1
  H  H362  1  0.78060000  0.23110000  0.44100000  1
  H  H363  1  0.78060000  0.23110000  0.55900000  1
  H  H364  1  0.78230000  0.35550000  0.18910000  1
  H  H365  1  0.78230000  0.35550000  0.81090000  1
  H  H366  1  0.78860000  0.72820000  0.09290000  1
  H  H367  1  0.78860000  0.72820000  0.90710000  1
  H  H368  1  0.79430000  0.16110000  0.18490000  1
  H  H369  1  0.79430000  0.16110000  0.81510000  1
  H  H370  1  0.79530000  0.13820000  0.14000000  1
  H  H371  1  0.79530000  0.13820000  0.86000000  1
  H  H372  1  0.79540000  0.18770000  0.31890000  1
  H  H373  1  0.79540000  0.18770000  0.68110000  1
  H  H374  1  0.80220000  0.94000000  0.37880000  1
  H  H375  1  0.80220000  0.94000000  0.62120000  1
  H  H376  1  0.80420000  0.13230000  0.28510000  1
  H  H377  1  0.80420000  0.13230000  0.71490000  1
  H  H378  1  0.80590000  0.22570000  0.39660000  1
  H  H379  1  0.80590000  0.22570000  0.60340000  1
  H  H380  1  0.81230000  0.79540000  0.18110000  1
  H  H381  1  0.81230000  0.79540000  0.81890000  1
  H  H382  1  0.81620000  0.36670000  0.14700000  1
  H  H383  1  0.81620000  0.36670000  0.85300000  1
  H  H384  1  0.82100000  0.73170000  0.34300000  1
  H  H385  1  0.82100000  0.73170000  0.65700000  1
  H  H386  1  0.82570000  0.45170000  0.04020000  1
  H  H387  1  0.82570000  0.45170000  0.95980000  1
  H  H388  1  0.83410000  0.39900000  0.07550000  1
  H  H389  1  0.83410000  0.39900000  0.92450000  1
  H  H390  1  0.83870000  0.92320000  0.41950000  1
  H  H391  1  0.83870000  0.92320000  0.58050000  1
  H  H392  1  0.83890000  0.79430000  0.31510000  1
  H  H393  1  0.83890000  0.79430000  0.68490000  1
  H  H394  1  0.83920000  0.12090000  0.32690000  1
  H  H395  1  0.83920000  0.12090000  0.67310000  1
  H  H396  1  0.84760000  0.47870000  0.22660000  1
  H  H397  1  0.84760000  0.47870000  0.77340000  1
  H  H398  1  0.85020000  0.47760000  0.08230000  1
  H  H399  1  0.85020000  0.47760000  0.91770000  1
  H  H400  1  0.86130000  0.01860000  0.46420000  1
  H  H401  1  0.86130000  0.01860000  0.53580000  1
  H  H402  1  0.86140000  0.37280000  0.18580000  1
  H  H403  1  0.86140000  0.37280000  0.81420000  1
  H  H404  1  0.86180000  0.79530000  0.36000000  1
  H  H405  1  0.86180000  0.79530000  0.64000000  1
  H  H406  1  0.86600000  0.48810000  0.41450000  1
  H  H407  1  0.86600000  0.48810000  0.58550000  1
  H  H408  1  0.86770000  0.80420000  0.21490000  1
  H  H409  1  0.86770000  0.80420000  0.78510000  1
  H  H410  1  0.87120000  0.30410000  0.30890000  1
  H  H411  1  0.87120000  0.30410000  0.69110000  1
  H  H412  1  0.87910000  0.83920000  0.17310000  1
  H  H413  1  0.87910000  0.83920000  0.82690000  1
  H  H414  1  0.88150000  0.01160000  0.16950000  1
  H  H415  1  0.88150000  0.01160000  0.83050000  1
  H  H416  1  0.88390000  0.30730000  0.35520000  1
  H  H417  1  0.88390000  0.30730000  0.64480000  1
  H  H418  1  0.89330000  0.37390000  0.32900000  1
  H  H419  1  0.89330000  0.37390000  0.67100000  1
  H  H420  1  0.89920000  0.97670000  0.06760000  1
  H  H421  1  0.89920000  0.97670000  0.93240000  1
  H  H422  1  0.90780000  0.54070000  0.31710000  1
  H  H423  1  0.90780000  0.54070000  0.68290000  1
  H  H424  1  0.91600000  0.06170000  0.13850000  1
  H  H425  1  0.91600000  0.06170000  0.86150000  1
  H  H426  1  0.91960000  0.54700000  0.40550000  1
  H  H427  1  0.91960000  0.54700000  0.59450000  1
  H  H428  1  0.92310000  0.47700000  0.38180000  1
  H  H429  1  0.92310000  0.47700000  0.61820000  1
  H  H430  1  0.92320000  0.16130000  0.08050000  1
  H  H431  1  0.92320000  0.16130000  0.91950000  1
  H  H432  1  0.92400000  0.24240000  0.08310000  1
  H  H433  1  0.92400000  0.24240000  0.91690000  1
  H  H434  1  0.93180000  0.32620000  0.45260000  1
  H  H435  1  0.93180000  0.32620000  0.54740000  1
  H  H436  1  0.93690000  0.98330000  0.13940000  1
  H  H437  1  0.93690000  0.98330000  0.86060000  1
  H  H438  1  0.93830000  0.91600000  0.36150000  1
  H  H439  1  0.93830000  0.91600000  0.63850000  1
  H  H440  1  0.94000000  0.19780000  0.12120000  1
  H  H441  1  0.94000000  0.19780000  0.87880000  1
  H  H442  1  0.95210000  0.59600000  0.18230000  1
  H  H443  1  0.95210000  0.59600000  0.81770000  1
  H  H444  1  0.95300000  0.35230000  0.40990000  1
  H  H445  1  0.95300000  0.35230000  0.59010000  1
  H  H446  1  0.96500000  0.39050000  0.11160000  1
  H  H447  1  0.96500000  0.39050000  0.88840000  1
  H  H448  1  0.96570000  0.56870000  0.10580000  1
  H  H449  1  0.96570000  0.56870000  0.89420000  1
  H  H450  1  0.97670000  0.10080000  0.43240000  1
  H  H451  1  0.97670000  0.10080000  0.56760000  1
  H  H452  1  0.98080000  0.63460000  0.07990000  1
  H  H453  1  0.98080000  0.63460000  0.92010000  1
  H  H454  1  0.98140000  0.86130000  0.03580000  1
  H  H455  1  0.98140000  0.86130000  0.96420000  1
  H  H456  1  0.98330000  0.06310000  0.36060000  1
  H  H457  1  0.98330000  0.06310000  0.63940000  1
  H  H458  1  0.98840000  0.88150000  0.33050000  1
  H  H459  1  0.98840000  0.88150000  0.66950000  1
  H  H460  1  0.99030000  0.65850000  0.44290000  1
  H  H461  1  0.99030000  0.65850000  0.55710000  1
  H  H462  1  0.99320000  0.35910000  0.27610000  1
  H  H463  1  0.99320000  0.35910000  0.72390000  1
  C  C464  1  0.00020000  0.84450000  0.38590000  1
  C  C465  1  0.00020000  0.84450000  0.61410000  1
  C  C466  1  0.00200000  0.77400000  0.38200000  1
  C  C467  1  0.00200000  0.77400000  0.61800000  1
  C  C468  1  0.01340000  0.38620000  0.10570000  1
  C  C469  1  0.01340000  0.38620000  0.89430000  1
  C  C470  1  0.01540000  0.26430000  0.34550000  1
  C  C471  1  0.01540000  0.26430000  0.65450000  1
  C  C472  1  0.01550000  0.10050000  0.35710000  1
  C  C473  1  0.01550000  0.10050000  0.64290000  1
  C  C474  1  0.01900000  0.20080000  0.08250000  1
  C  C475  1  0.01900000  0.20080000  0.91750000  1
  C  C476  1  0.02380000  0.74910000  0.41890000  1
  C  C477  1  0.02380000  0.74910000  0.58110000  1
  C  C478  1  0.02800000  0.69310000  0.32340000  1
  C  C479  1  0.02800000  0.69310000  0.67660000  1
  C  C480  1  0.03310000  0.67570000  0.43230000  1
  C  C481  1  0.03310000  0.67570000  0.56770000  1
  C  C482  1  0.04720000  0.34200000  0.13670000  1
  C  C483  1  0.04720000  0.34200000  0.86330000  1
  C  C484  1  0.05480000  0.79940000  0.09270000  1
  C  C485  1  0.05480000  0.79940000  0.90730000  1
  C  C486  1  0.07520000  0.27650000  0.13410000  1
  C  C487  1  0.07520000  0.27650000  0.86590000  1
  C  C488  1  0.07600000  0.23060000  0.09910000  1
  C  C489  1  0.07600000  0.23060000  0.90090000  1
  C  C490  1  0.07880000  0.26720000  0.32590000  1
  C  C491  1  0.07880000  0.26720000  0.67410000  1
  C  C492  1  0.10050000  0.98450000  0.14290000  1
  C  C493  1  0.10050000  0.98450000  0.85710000  1
  C  C494  1  0.10130000  0.67540000  0.32970000  1
  C  C495  1  0.10130000  0.67540000  0.67030000  1
  C  C496  1  0.10270000  0.26410000  0.17220000  1
  C  C497  1  0.10270000  0.26410000  0.82780000  1
  C  C498  1  0.10730000  0.48980000  0.39390000  1
  C  C499  1  0.10730000  0.48980000  0.60610000  1
  C  C500  1  0.13320000  0.20900000  0.07780000  1
  C  C501  1  0.13320000  0.20900000  0.92220000  1
  C  C502  1  0.13910000  0.20070000  0.18660000  1
  C  C503  1  0.13910000  0.20070000  0.81340000  1
  C  C504  1  0.14520000  0.23350000  0.33700000  1
  C  C505  1  0.14520000  0.23350000  0.66300000  1
  C  C506  1  0.15460000  0.46090000  0.36300000  1
  C  C507  1  0.15460000  0.46090000  0.63700000  1
  C  C508  1  0.15550000  0.00020000  0.11410000  1
  C  C509  1  0.15550000  0.00020000  0.88590000  1
  C  C510  1  0.17330000  0.68560000  0.00000000  1
  C  C511  1  0.17450000  0.66470000  0.50000000  1
  C  C512  1  0.17910000  0.55470000  0.06850000  1
  C  C513  1  0.17910000  0.55470000  0.93150000  1
  C  C514  1  0.18350000  0.61880000  0.17450000  1
  C  C515  1  0.18350000  0.61880000  0.82550000  1
  C  C516  1  0.19950000  0.54420000  0.17680000  1
  C  C517  1  0.19950000  0.54420000  0.82320000  1
  C  C518  1  0.20060000  0.05480000  0.40730000  1
  C  C519  1  0.20060000  0.05480000  0.59270000  1
  C  C520  1  0.20070000  0.86090000  0.31340000  1
  C  C521  1  0.20070000  0.86090000  0.68660000  1
  C  C522  1  0.20080000  0.98100000  0.41750000  1
  C  C523  1  0.20080000  0.98100000  0.58250000  1
  C  C524  1  0.20670000  0.22500000  0.08380000  1
  C  C525  1  0.20670000  0.22500000  0.91620000  1
  C  C526  1  0.20900000  0.86680000  0.42220000  1
  C  C527  1  0.20900000  0.86680000  0.57780000  1
  C  C528  1  0.22090000  0.44130000  0.36460000  1
  C  C529  1  0.22090000  0.44130000  0.63540000  1
  C  C530  1  0.22500000  0.79330000  0.41620000  1
  C  C531  1  0.22500000  0.79330000  0.58380000  1
  C  C532  1  0.22600000  0.00200000  0.11800000  1
  C  C533  1  0.22600000  0.00200000  0.88200000  1
  C  C534  1  0.23060000  0.92400000  0.40090000  1
  C  C535  1  0.23060000  0.92400000  0.59910000  1
  C  C536  1  0.23350000  0.85480000  0.16300000  1
  C  C537  1  0.23350000  0.85480000  0.83700000  1
  C  C538  1  0.23430000  0.43690000  0.17090000  1
  C  C539  1  0.23430000  0.43690000  0.82910000  1
  C  C540  1  0.23650000  0.50060000  0.15250000  1
  C  C541  1  0.23650000  0.50060000  0.84750000  1
  C  C542  1  0.23880000  0.41920000  0.32690000  1
  C  C543  1  0.23880000  0.41920000  0.67310000  1
  C  C544  1  0.25090000  0.02380000  0.08110000  1
  C  C545  1  0.25090000  0.02380000  0.91890000  1
  C  C546  1  0.25270000  0.54270000  0.08030000  1
  C  C547  1  0.25270000  0.54270000  0.91970000  1
  C  C548  1  0.26410000  0.89730000  0.32780000  1
  C  C549  1  0.26410000  0.89730000  0.67220000  1
  C  C550  1  0.26430000  0.98460000  0.15450000  1
  C  C551  1  0.26430000  0.98460000  0.84550000  1
  C  C552  1  0.26490000  0.37130000  0.15680000  1
  C  C553  1  0.26490000  0.37130000  0.84320000  1
  C  C554  1  0.26650000  0.31070000  0.41500000  1
  C  C555  1  0.26650000  0.31070000  0.58500000  1
  C  C556  1  0.26690000  0.44050000  0.39960000  1
  C  C557  1  0.26690000  0.44050000  0.60040000  1
  C  C558  1  0.26720000  0.92120000  0.17410000  1
  C  C559  1  0.26720000  0.92120000  0.82590000  1
  C  C560  1  0.27530000  0.51850000  0.11680000  1
  C  C561  1  0.27530000  0.51850000  0.88320000  1
  C  C562  1  0.27620000  0.69670000  0.26320000  1
  C  C563  1  0.27620000  0.69670000  0.73680000  1
  C  C564  1  0.27650000  0.92480000  0.36590000  1
  C  C565  1  0.27650000  0.92480000  0.63410000  1
  C  C566  1  0.28490000  0.38210000  0.42230000  1
  C  C567  1  0.28490000  0.38210000  0.57770000  1
  C  C568  1  0.29710000  0.56810000  0.40710000  1
  C  C569  1  0.29710000  0.56810000  0.59290000  1
  C  C570  1  0.29820000  0.49590000  0.41800000  1
  C  C571  1  0.29820000  0.49590000  0.58200000  1
  C  C572  1  0.30330000  0.27620000  0.23680000  1
  C  C573  1  0.30330000  0.27620000  0.76320000  1
  C  C574  1  0.30610000  0.39780000  0.31190000  1
  C  C575  1  0.30610000  0.39780000  0.68810000  1
  C  C576  1  0.30690000  0.02800000  0.17660000  1
  C  C577  1  0.30690000  0.02800000  0.82340000  1
  C  C578  1  0.31070000  0.73350000  0.08500000  1
  C  C579  1  0.31070000  0.73350000  0.91500000  1
  C  C580  1  0.31440000  0.17330000  0.50000000  1
  C  C581  1  0.32430000  0.03310000  0.06770000  1
  C  C582  1  0.32430000  0.03310000  0.93230000  1
  C  C583  1  0.32460000  0.10130000  0.17030000  1
  C  C584  1  0.32460000  0.10130000  0.82970000  1
  C  C585  1  0.33530000  0.17450000  0.00000000  1
  C  C586  1  0.34200000  0.95280000  0.36330000  1
  C  C587  1  0.34200000  0.95280000  0.63670000  1
  C  C588  1  0.34640000  0.51180000  0.11260000  1
  C  C589  1  0.34640000  0.51180000  0.88740000  1
  C  C590  1  0.37130000  0.73510000  0.34320000  1
  C  C591  1  0.37130000  0.73510000  0.65680000  1
  C  C592  1  0.38120000  0.18350000  0.32550000  1
  C  C593  1  0.38120000  0.18350000  0.67450000  1
  C  C594  1  0.38210000  0.71510000  0.07770000  1
  C  C595  1  0.38210000  0.71510000  0.92230000  1
  C  C596  1  0.38620000  0.98660000  0.39430000  1
  C  C597  1  0.38620000  0.98660000  0.60570000  1
  C  C598  1  0.39780000  0.69390000  0.18810000  1
  C  C599  1  0.39780000  0.69390000  0.81190000  1
  C  C600  1  0.40110000  0.49110000  0.14120000  1
  C  C601  1  0.40110000  0.49110000  0.85880000  1
  C  C602  1  0.41920000  0.76120000  0.17310000  1
  C  C603  1  0.41920000  0.76120000  0.82690000  1
  C  C604  1  0.43190000  0.29710000  0.09290000  1
  C  C605  1  0.43190000  0.29710000  0.90710000  1
  C  C606  1  0.43690000  0.76570000  0.32910000  1
  C  C607  1  0.43690000  0.76570000  0.67090000  1
  C  C608  1  0.44050000  0.73310000  0.10040000  1
  C  C609  1  0.44050000  0.73310000  0.89960000  1
  C  C610  1  0.44130000  0.77910000  0.13540000  1
  C  C611  1  0.44130000  0.77910000  0.86460000  1
  C  C612  1  0.44530000  0.17910000  0.43150000  1
  C  C613  1  0.44530000  0.17910000  0.56850000  1
  C  C614  1  0.45580000  0.19950000  0.32320000  1
  C  C615  1  0.45580000  0.19950000  0.67680000  1
  C  C616  1  0.45730000  0.25270000  0.41970000  1
  C  C617  1  0.45730000  0.25270000  0.58030000  1
  C  C618  1  0.46090000  0.84540000  0.13700000  1
  C  C619  1  0.46090000  0.84540000  0.86300000  1
  C  C620  1  0.48150000  0.27530000  0.38320000  1
  C  C621  1  0.48150000  0.27530000  0.61680000  1
  C  C622  1  0.48820000  0.34640000  0.38740000  1
  C  C623  1  0.48820000  0.34640000  0.61260000  1
  C  C624  1  0.48980000  0.89270000  0.10610000  1
  C  C625  1  0.48980000  0.89270000  0.89390000  1
  C  C626  1  0.49110000  0.59890000  0.35880000  1
  C  C627  1  0.49110000  0.59890000  0.64120000  1
  C  C628  1  0.49590000  0.70180000  0.08200000  1
  C  C629  1  0.49590000  0.70180000  0.91800000  1
  C  C630  1  0.49940000  0.23650000  0.34750000  1
  C  C631  1  0.49940000  0.23650000  0.65250000  1
  C  C632  1  0.50060000  0.76350000  0.34750000  1
  C  C633  1  0.50060000  0.76350000  0.65250000  1
  C  C634  1  0.50410000  0.29820000  0.08200000  1
  C  C635  1  0.50410000  0.29820000  0.91800000  1
  C  C636  1  0.50890000  0.40110000  0.35880000  1
  C  C637  1  0.50890000  0.40110000  0.64120000  1
  C  C638  1  0.51020000  0.10730000  0.10610000  1
  C  C639  1  0.51020000  0.10730000  0.89390000  1
  C  C640  1  0.51180000  0.65360000  0.38740000  1
  C  C641  1  0.51180000  0.65360000  0.61260000  1
  C  C642  1  0.51850000  0.72470000  0.38320000  1
  C  C643  1  0.51850000  0.72470000  0.61680000  1
  C  C644  1  0.53910000  0.15460000  0.13700000  1
  C  C645  1  0.53910000  0.15460000  0.86300000  1
  C  C646  1  0.54270000  0.74730000  0.41970000  1
  C  C647  1  0.54270000  0.74730000  0.58030000  1
  C  C648  1  0.54420000  0.80050000  0.32320000  1
  C  C649  1  0.54420000  0.80050000  0.67680000  1
  C  C650  1  0.55470000  0.82090000  0.43150000  1
  C  C651  1  0.55470000  0.82090000  0.56850000  1
  C  C652  1  0.55870000  0.22090000  0.13540000  1
  C  C653  1  0.55870000  0.22090000  0.86460000  1
  C  C654  1  0.55950000  0.26690000  0.10040000  1
  C  C655  1  0.55950000  0.26690000  0.89960000  1
  C  C656  1  0.56310000  0.23430000  0.32910000  1
  C  C657  1  0.56310000  0.23430000  0.67090000  1
  C  C658  1  0.56810000  0.70290000  0.09290000  1
  C  C659  1  0.56810000  0.70290000  0.90710000  1
  C  C660  1  0.58080000  0.23880000  0.17310000  1
  C  C661  1  0.58080000  0.23880000  0.82690000  1
  C  C662  1  0.59890000  0.50890000  0.14120000  1
  C  C663  1  0.59890000  0.50890000  0.85880000  1
  C  C664  1  0.60220000  0.30610000  0.18810000  1
  C  C665  1  0.60220000  0.30610000  0.81190000  1
  C  C666  1  0.61380000  0.01340000  0.39430000  1
  C  C667  1  0.61380000  0.01340000  0.60570000  1
  C  C668  1  0.61790000  0.28490000  0.07770000  1
  C  C669  1  0.61790000  0.28490000  0.92230000  1
  C  C670  1  0.61880000  0.81650000  0.32550000  1
  C  C671  1  0.61880000  0.81650000  0.67450000  1
  C  C672  1  0.62870000  0.26490000  0.34320000  1
  C  C673  1  0.62870000  0.26490000  0.65680000  1
  C  C674  1  0.65360000  0.48820000  0.11260000  1
  C  C675  1  0.65360000  0.48820000  0.88740000  1
  C  C676  1  0.65800000  0.04720000  0.36330000  1
  C  C677  1  0.65800000  0.04720000  0.63670000  1
  C  C678  1  0.66470000  0.82550000  0.00000000  1
  C  C679  1  0.67540000  0.89870000  0.17030000  1
  C  C680  1  0.67540000  0.89870000  0.82970000  1
  C  C681  1  0.67570000  0.96690000  0.06770000  1
  C  C682  1  0.67570000  0.96690000  0.93230000  1
  C  C683  1  0.68560000  0.82670000  0.50000000  1
  C  C684  1  0.68930000  0.26650000  0.08500000  1
  C  C685  1  0.68930000  0.26650000  0.91500000  1
  C  C686  1  0.69310000  0.97200000  0.17660000  1
  C  C687  1  0.69310000  0.97200000  0.82340000  1
  C  C688  1  0.69390000  0.60220000  0.31190000  1
  C  C689  1  0.69390000  0.60220000  0.68810000  1
  C  C690  1  0.69670000  0.72380000  0.23680000  1
  C  C691  1  0.69670000  0.72380000  0.76320000  1
  C  C692  1  0.70180000  0.50410000  0.41800000  1
  C  C693  1  0.70180000  0.50410000  0.58200000  1
  C  C694  1  0.70290000  0.43190000  0.40710000  1
  C  C695  1  0.70290000  0.43190000  0.59290000  1
  C  C696  1  0.71510000  0.61790000  0.42230000  1
  C  C697  1  0.71510000  0.61790000  0.57770000  1
  C  C698  1  0.72350000  0.07520000  0.36590000  1
  C  C699  1  0.72350000  0.07520000  0.63410000  1
  C  C700  1  0.72380000  0.30330000  0.26320000  1
  C  C701  1  0.72380000  0.30330000  0.73680000  1
  C  C702  1  0.72470000  0.48150000  0.11680000  1
  C  C703  1  0.72470000  0.48150000  0.88320000  1
  C  C704  1  0.73280000  0.07880000  0.17410000  1
  C  C705  1  0.73280000  0.07880000  0.82590000  1
  C  C706  1  0.73310000  0.55950000  0.39960000  1
  C  C707  1  0.73310000  0.55950000  0.60040000  1
  C  C708  1  0.73350000  0.68930000  0.41500000  1
  C  C709  1  0.73350000  0.68930000  0.58500000  1
  C  C710  1  0.73510000  0.62870000  0.15680000  1
  C  C711  1  0.73510000  0.62870000  0.84320000  1
  C  C712  1  0.73570000  0.01540000  0.15450000  1
  C  C713  1  0.73570000  0.01540000  0.84550000  1
  C  C714  1  0.73590000  0.10270000  0.32780000  1
  C  C715  1  0.73590000  0.10270000  0.67220000  1
  C  C716  1  0.74730000  0.45730000  0.08030000  1
  C  C717  1  0.74730000  0.45730000  0.91970000  1
  C  C718  1  0.74910000  0.97620000  0.08110000  1
  C  C719  1  0.74910000  0.97620000  0.91890000  1
  C  C720  1  0.76120000  0.58080000  0.32690000  1
  C  C721  1  0.76120000  0.58080000  0.67310000  1
  C  C722  1  0.76350000  0.49940000  0.15250000  1
  C  C723  1  0.76350000  0.49940000  0.84750000  1
  C  C724  1  0.76570000  0.56310000  0.17090000  1
  C  C725  1  0.76570000  0.56310000  0.82910000  1
  C  C726  1  0.76650000  0.14520000  0.16300000  1
  C  C727  1  0.76650000  0.14520000  0.83700000  1
  C  C728  1  0.76940000  0.07600000  0.40090000  1
  C  C729  1  0.76940000  0.07600000  0.59910000  1
  C  C730  1  0.77400000  0.99800000  0.11800000  1
  C  C731  1  0.77400000  0.99800000  0.88200000  1
  C  C732  1  0.77500000  0.20670000  0.41620000  1
  C  C733  1  0.77500000  0.20670000  0.58380000  1
  C  C734  1  0.77910000  0.55870000  0.36460000  1
  C  C735  1  0.77910000  0.55870000  0.63540000  1
  C  C736  1  0.79100000  0.13320000  0.42220000  1
  C  C737  1  0.79100000  0.13320000  0.57780000  1
  C  C738  1  0.79330000  0.77500000  0.08380000  1
  C  C739  1  0.79330000  0.77500000  0.91620000  1
  C  C740  1  0.79920000  0.01900000  0.41750000  1
  C  C741  1  0.79920000  0.01900000  0.58250000  1
  C  C742  1  0.79930000  0.13910000  0.31340000  1
  C  C743  1  0.79930000  0.13910000  0.68660000  1
  C  C744  1  0.79940000  0.94520000  0.40730000  1
  C  C745  1  0.79940000  0.94520000  0.59270000  1
  C  C746  1  0.80050000  0.45580000  0.17680000  1
  C  C747  1  0.80050000  0.45580000  0.82320000  1
  C  C748  1  0.81650000  0.38120000  0.17450000  1
  C  C749  1  0.81650000  0.38120000  0.82550000  1
  C  C750  1  0.82090000  0.44530000  0.06850000  1
  C  C751  1  0.82090000  0.44530000  0.93150000  1
  C  C752  1  0.82550000  0.33530000  0.50000000  1
  C  C753  1  0.82670000  0.31440000  0.00000000  1
  C  C754  1  0.84450000  0.99980000  0.11410000  1
  C  C755  1  0.84450000  0.99980000  0.88590000  1
  C  C756  1  0.84540000  0.53910000  0.36300000  1
  C  C757  1  0.84540000  0.53910000  0.63700000  1
  C  C758  1  0.85480000  0.76650000  0.33700000  1
  C  C759  1  0.85480000  0.76650000  0.66300000  1
  C  C760  1  0.86090000  0.79930000  0.18660000  1
  C  C761  1  0.86090000  0.79930000  0.81340000  1
  C  C762  1  0.86680000  0.79100000  0.07780000  1
  C  C763  1  0.86680000  0.79100000  0.92220000  1
  C  C764  1  0.89270000  0.51020000  0.39390000  1
  C  C765  1  0.89270000  0.51020000  0.60610000  1
  C  C766  1  0.89730000  0.73590000  0.17220000  1
  C  C767  1  0.89730000  0.73590000  0.82780000  1
  C  C768  1  0.89870000  0.32460000  0.32970000  1
  C  C769  1  0.89870000  0.32460000  0.67030000  1
  C  C770  1  0.89950000  0.01550000  0.14290000  1
  C  C771  1  0.89950000  0.01550000  0.85710000  1
  C  C772  1  0.92120000  0.73280000  0.32590000  1
  C  C773  1  0.92120000  0.73280000  0.67410000  1
  C  C774  1  0.92400000  0.76940000  0.09910000  1
  C  C775  1  0.92400000  0.76940000  0.90090000  1
  C  C776  1  0.92480000  0.72350000  0.13410000  1
  C  C777  1  0.92480000  0.72350000  0.86590000  1
  C  C778  1  0.94520000  0.20060000  0.09270000  1
  C  C779  1  0.94520000  0.20060000  0.90730000  1
  C  C780  1  0.95280000  0.65800000  0.13670000  1
  C  C781  1  0.95280000  0.65800000  0.86330000  1
  C  C782  1  0.96690000  0.32430000  0.43230000  1
  C  C783  1  0.96690000  0.32430000  0.56770000  1
  C  C784  1  0.97200000  0.30690000  0.32340000  1
  C  C785  1  0.97200000  0.30690000  0.67660000  1
  C  C786  1  0.97620000  0.25090000  0.41890000  1
  C  C787  1  0.97620000  0.25090000  0.58110000  1
  C  C788  1  0.98100000  0.79920000  0.08250000  1
  C  C789  1  0.98100000  0.79920000  0.91750000  1
  C  C790  1  0.98450000  0.89950000  0.35710000  1
  C  C791  1  0.98450000  0.89950000  0.64290000  1
  C  C792  1  0.98460000  0.73570000  0.34550000  1
  C  C793  1  0.98460000  0.73570000  0.65450000  1
  C  C794  1  0.98660000  0.61380000  0.10570000  1
  C  C795  1  0.98660000  0.61380000  0.89430000  1
  C  C796  1  0.99800000  0.22600000  0.38200000  1
  C  C797  1  0.99800000  0.22600000  0.61800000  1
  C  C798  1  0.99980000  0.15550000  0.38590000  1
  C  C799  1  0.99980000  0.15550000  0.61410000  1
  S  S800  1  0.08960000  0.69880000  0.00000000  1
  S  S801  1  0.18890000  0.58070000  0.50000000  1
  S  S802  1  0.26179000  0.61937000  0.27696000  1
  S  S803  1  0.26179000  0.61937000  0.72304000  1
  S  S804  1  0.30120000  0.08960000  0.50000000  1
  S  S805  1  0.38063000  0.26179000  0.22304000  1
  S  S806  1  0.38063000  0.26179000  0.77696000  1
  S  S807  1  0.41930000  0.18890000  0.00000000  1
  S  S808  1  0.58070000  0.81110000  0.00000000  1
  S  S809  1  0.61937000  0.73821000  0.22304000  1
  S  S810  1  0.61937000  0.73821000  0.77696000  1
  S  S811  1  0.69880000  0.91040000  0.50000000  1
  S  S812  1  0.73821000  0.38063000  0.27696000  1
  S  S813  1  0.73821000  0.38063000  0.72304000  1
  S  S814  1  0.81110000  0.41930000  0.50000000  1
  S  S815  1  0.91040000  0.30120000  0.00000000  1
  N  N816  1  0.00900000  0.33090000  0.29384000  1
  N  N817  1  0.00900000  0.33090000  0.70616000  1
  N  N818  1  0.02000000  0.85790000  0.42292000  1
  N  N819  1  0.02000000  0.85790000  0.57708000  1
  N  N820  1  0.03470000  0.80050000  0.44454000  1
  N  N821  1  0.03470000  0.80050000  0.55546000  1
  N  N822  1  0.04420000  0.16330000  0.05135000  1
  N  N823  1  0.04420000  0.16330000  0.94865000  1
  N  N824  1  0.06010000  0.36400000  0.17351000  1
  N  N825  1  0.06010000  0.36400000  0.82649000  1
  N  N826  1  0.07430000  0.30720000  0.29407000  1
  N  N827  1  0.07430000  0.30720000  0.70593000  1
  N  N828  1  0.09390000  0.31730000  0.19533000  1
  N  N829  1  0.09390000  0.31730000  0.80467000  1
  N  N830  1  0.11290000  0.16850000  0.04734000  1
  N  N831  1  0.11290000  0.16850000  0.95266000  1
  N  N832  1  0.13350000  0.45070000  0.32537000  1
  N  N833  1  0.13350000  0.45070000  0.67463000  1
  N  N834  1  0.14210000  0.02000000  0.07708000  1
  N  N835  1  0.14210000  0.02000000  0.92292000  1
  N  N836  1  0.15970000  0.72030000  0.50000000  1
  N  N837  1  0.16330000  0.95580000  0.44865000  1
  N  N838  1  0.16330000  0.95580000  0.55135000  1
  N  N839  1  0.16850000  0.88710000  0.45266000  1
  N  N840  1  0.16850000  0.88710000  0.54734000  1
  N  N841  1  0.17710000  0.50530000  0.20725000  1
  N  N842  1  0.17710000  0.50530000  0.79275000  1
  N  N843  1  0.18510000  0.42520000  0.30159000  1
  N  N844  1  0.18510000  0.42520000  0.69841000  1
  N  N845  1  0.19680000  0.43950000  0.20474000  1
  N  N846  1  0.19680000  0.43950000  0.79526000  1
  N  N847  1  0.19950000  0.03470000  0.05546000  1
  N  N848  1  0.19950000  0.03470000  0.94454000  1
  N  N849  1  0.23360000  0.68070000  0.00000000  1
  N  N850  1  0.24600000  0.28280000  0.24700000  1
  N  N851  1  0.24600000  0.28280000  0.75300000  1
  N  N852  1  0.27970000  0.15970000  0.00000000  1
  N  N853  1  0.28280000  0.75400000  0.25300000  1
  N  N854  1  0.28280000  0.75400000  0.74700000  1
  N  N855  1  0.30390000  0.54890000  0.05465000  1
  N  N856  1  0.30390000  0.54890000  0.94535000  1
  N  N857  1  0.30720000  0.92570000  0.20593000  1
  N  N858  1  0.30720000  0.92570000  0.79407000  1
  N  N859  1  0.31730000  0.90610000  0.30467000  1
  N  N860  1  0.31730000  0.90610000  0.69533000  1
  N  N861  1  0.31930000  0.23360000  0.50000000  1
  N  N862  1  0.32520000  0.40110000  0.45211000  1
  N  N863  1  0.32520000  0.40110000  0.54789000  1
  N  N864  1  0.33090000  0.99100000  0.20616000  1
  N  N865  1  0.33090000  0.99100000  0.79384000  1
  N  N866  1  0.33180000  0.46940000  0.44911000  1
  N  N867  1  0.33180000  0.46940000  0.55089000  1
  N  N868  1  0.36020000  0.53000000  0.07545000  1
  N  N869  1  0.36020000  0.53000000  0.92455000  1
  N  N870  1  0.36400000  0.93990000  0.32649000  1
  N  N871  1  0.36400000  0.93990000  0.67351000  1
  N  N872  1  0.40110000  0.67480000  0.04789000  1
  N  N873  1  0.40110000  0.67480000  0.95211000  1
  N  N874  1  0.42520000  0.81490000  0.19841000  1
  N  N875  1  0.42520000  0.81490000  0.80159000  1
  N  N876  1  0.43950000  0.80320000  0.29526000  1
  N  N877  1  0.43950000  0.80320000  0.70474000  1
  N  N878  1  0.45070000  0.86650000  0.17463000  1
  N  N879  1  0.45070000  0.86650000  0.82537000  1
  N  N880  1  0.45110000  0.30390000  0.44535000  1
  N  N881  1  0.45110000  0.30390000  0.55465000  1
  N  N882  1  0.46940000  0.66820000  0.05089000  1
  N  N883  1  0.46940000  0.66820000  0.94911000  1
  N  N884  1  0.47000000  0.36020000  0.42455000  1
  N  N885  1  0.47000000  0.36020000  0.57545000  1
  N  N886  1  0.49470000  0.17710000  0.29275000  1
  N  N887  1  0.49470000  0.17710000  0.70725000  1
  N  N888  1  0.50530000  0.82290000  0.29275000  1
  N  N889  1  0.50530000  0.82290000  0.70725000  1
  N  N890  1  0.53000000  0.63980000  0.42455000  1
  N  N891  1  0.53000000  0.63980000  0.57545000  1
  N  N892  1  0.53060000  0.33180000  0.05089000  1
  N  N893  1  0.53060000  0.33180000  0.94911000  1
  N  N894  1  0.54890000  0.69610000  0.44535000  1
  N  N895  1  0.54890000  0.69610000  0.55465000  1
  N  N896  1  0.54930000  0.13350000  0.17463000  1
  N  N897  1  0.54930000  0.13350000  0.82537000  1
  N  N898  1  0.56050000  0.19680000  0.29526000  1
  N  N899  1  0.56050000  0.19680000  0.70474000  1
  N  N900  1  0.57480000  0.18510000  0.19841000  1
  N  N901  1  0.57480000  0.18510000  0.80159000  1
  N  N902  1  0.59890000  0.32520000  0.04789000  1
  N  N903  1  0.59890000  0.32520000  0.95211000  1
  N  N904  1  0.63600000  0.06010000  0.32649000  1
  N  N905  1  0.63600000  0.06010000  0.67351000  1
  N  N906  1  0.63980000  0.47000000  0.07545000  1
  N  N907  1  0.63980000  0.47000000  0.92455000  1
  N  N908  1  0.66820000  0.53060000  0.44911000  1
  N  N909  1  0.66820000  0.53060000  0.55089000  1
  N  N910  1  0.66910000  0.00900000  0.20616000  1
  N  N911  1  0.66910000  0.00900000  0.79384000  1
  N  N912  1  0.67480000  0.59890000  0.45211000  1
  N  N913  1  0.67480000  0.59890000  0.54789000  1
  N  N914  1  0.68070000  0.76640000  0.50000000  1
  N  N915  1  0.68270000  0.09390000  0.30467000  1
  N  N916  1  0.68270000  0.09390000  0.69533000  1
  N  N917  1  0.69280000  0.07430000  0.20593000  1
  N  N918  1  0.69280000  0.07430000  0.79407000  1
  N  N919  1  0.69610000  0.45110000  0.05465000  1
  N  N920  1  0.69610000  0.45110000  0.94535000  1
  N  N921  1  0.71720000  0.24600000  0.25300000  1
  N  N922  1  0.71720000  0.24600000  0.74700000  1
  N  N923  1  0.72030000  0.84030000  0.00000000  1
  N  N924  1  0.75400000  0.71720000  0.24700000  1
  N  N925  1  0.75400000  0.71720000  0.75300000  1
  N  N926  1  0.76640000  0.31930000  0.00000000  1
  N  N927  1  0.80050000  0.96530000  0.05546000  1
  N  N928  1  0.80050000  0.96530000  0.94454000  1
  N  N929  1  0.80320000  0.56050000  0.20474000  1
  N  N930  1  0.80320000  0.56050000  0.79526000  1
  N  N931  1  0.81490000  0.57480000  0.30159000  1
  N  N932  1  0.81490000  0.57480000  0.69841000  1
  N  N933  1  0.82290000  0.49470000  0.20725000  1
  N  N934  1  0.82290000  0.49470000  0.79275000  1
  N  N935  1  0.83150000  0.11290000  0.45266000  1
  N  N936  1  0.83150000  0.11290000  0.54734000  1
  N  N937  1  0.83670000  0.04420000  0.44865000  1
  N  N938  1  0.83670000  0.04420000  0.55135000  1
  N  N939  1  0.84030000  0.27970000  0.50000000  1
  N  N940  1  0.85790000  0.98000000  0.07708000  1
  N  N941  1  0.85790000  0.98000000  0.92292000  1
  N  N942  1  0.86650000  0.54930000  0.32537000  1
  N  N943  1  0.86650000  0.54930000  0.67463000  1
  N  N944  1  0.88710000  0.83150000  0.04734000  1
  N  N945  1  0.88710000  0.83150000  0.95266000  1
  N  N946  1  0.90610000  0.68270000  0.19533000  1
  N  N947  1  0.90610000  0.68270000  0.80467000  1
  N  N948  1  0.92570000  0.69280000  0.29407000  1
  N  N949  1  0.92570000  0.69280000  0.70593000  1
  N  N950  1  0.93990000  0.63600000  0.17351000  1
  N  N951  1  0.93990000  0.63600000  0.82649000  1
  N  N952  1  0.95580000  0.83670000  0.05135000  1
  N  N953  1  0.95580000  0.83670000  0.94865000  1
  N  N954  1  0.96530000  0.19950000  0.44454000  1
  N  N955  1  0.96530000  0.19950000  0.55546000  1
  N  N956  1  0.98000000  0.14210000  0.42292000  1
  N  N957  1  0.98000000  0.14210000  0.57708000  1
  N  N958  1  0.99100000  0.66910000  0.29384000  1
  N  N959  1  0.99100000  0.66910000  0.70616000  1
