# generated using pymatgen
data_Tb2P2H25C43O16
_symmetry_space_group_name_H-M   'P 1'
_cell_length_a   10.55730000
_cell_length_b   14.47940000
_cell_length_c   23.31600000
_cell_angle_alpha   107.31600000
_cell_angle_beta   90.00000000
_cell_angle_gamma   90.00000000
_symmetry_Int_Tables_number   1
_chemical_formula_structural   Tb2P2H25C43O16
_chemical_formula_sum   'Tb4 P4 H50 C86 O32'
_cell_volume   3402.62636154
_cell_formula_units_Z   2
loop_
 _symmetry_equiv_pos_site_id
 _symmetry_equiv_pos_as_xyz
  1  'x, y, z'
loop_
 _atom_site_type_symbol
 _atom_site_label
 _atom_site_symmetry_multiplicity
 _atom_site_fract_x
 _atom_site_fract_y
 _atom_site_fract_z
 _atom_site_occupancy
  Tb  Tb0  1  0.04805000  0.07409000  0.73003000  1
  Tb  Tb1  1  0.04805000  0.42591000  0.76997000  1
  Tb  Tb2  1  0.95195000  0.57409000  0.23003000  1
  Tb  Tb3  1  0.95195000  0.92591000  0.26997000  1
  P  P4  1  0.16027000  0.09847000  0.37798000  1
  P  P5  1  0.16027000  0.40153000  0.12202000  1
  P  P6  1  0.83973000  0.59847000  0.87798000  1
  P  P7  1  0.83973000  0.90153000  0.62202000  1
  H  H8  1  0.06700000  0.67940000  0.85180000  1
  H  H9  1  0.06700000  0.82060000  0.64820000  1
  H  H10  1  0.11800000  0.16670000  0.92980000  1
  H  H11  1  0.11800000  0.33333333  0.57020000  1
  H  H12  1  0.12390000  0.06030000  0.57350000  1
  H  H13  1  0.12390000  0.43970000  0.92650000  1
  H  H14  1  0.12490000  0.69010000  0.67760000  1
  H  H15  1  0.12490000  0.80990000  0.82240000  1
  H  H16  1  0.13930000  0.21780000  0.03220000  1
  H  H17  1  0.13930000  0.28220000  0.46780000  1
  H  H18  1  0.14950000  0.00810000  0.47050000  1
  H  H19  1  0.14950000  0.49190000  0.02950000  1
  H  H20  1  0.23920000  0.11880000  0.18490000  1
  H  H21  1  0.23920000  0.38120000  0.31510000  1
  H  H22  1  0.26790000  0.75000000  0.25000000  1
  H  H23  1  0.28440000  0.53730000  0.21510000  1
  H  H24  1  0.28440000  0.96270000  0.28490000  1
  H  H25  1  0.29680000  0.25000000  0.15380000  1
  H  H26  1  0.29680000  0.25000000  0.34620000  1
  H  H27  1  0.38780000  0.62050000  0.90590000  1
  H  H28  1  0.38780000  0.87950000  0.59410000  1
  H  H29  1  0.40500000  0.16280000  0.43310000  1
  H  H30  1  0.40500000  0.33720000  0.06690000  1
  H  H31  1  0.48950000  0.57830000  0.24270000  1
  H  H32  1  0.48950000  0.92170000  0.25730000  1
  H  H33  1  0.51050000  0.07830000  0.74270000  1
  H  H34  1  0.51050000  0.42170000  0.75730000  1
  H  H35  1  0.59500000  0.66280000  0.93310000  1
  H  H36  1  0.59500000  0.83720000  0.56690000  1
  H  H37  1  0.61220000  0.12050000  0.40590000  1
  H  H38  1  0.61220000  0.37950000  0.09410000  1
  H  H39  1  0.70320000  0.75000000  0.65380000  1
  H  H40  1  0.70320000  0.75000000  0.84620000  1
  H  H41  1  0.71560000  0.03730000  0.71510000  1
  H  H42  1  0.71560000  0.46270000  0.78490000  1
  H  H43  1  0.73210000  0.25000000  0.75000000  1
  H  H44  1  0.76080000  0.61880000  0.68490000  1
  H  H45  1  0.76080000  0.88120000  0.81510000  1
  H  H46  1  0.85050000  0.50810000  0.97050000  1
  H  H47  1  0.85050000  0.99190000  0.52950000  1
  H  H48  1  0.86070000  0.71780000  0.53220000  1
  H  H49  1  0.86070000  0.78220000  0.96780000  1
  H  H50  1  0.87510000  0.19010000  0.17760000  1
  H  H51  1  0.87510000  0.30990000  0.32240000  1
  H  H52  1  0.87610000  0.56030000  0.07350000  1
  H  H53  1  0.87610000  0.93970000  0.42650000  1
  H  H54  1  0.88200000  0.66666667  0.42980000  1
  H  H55  1  0.88200000  0.83330000  0.07020000  1
  H  H56  1  0.93300000  0.17940000  0.35180000  1
  H  H57  1  0.93300000  0.32060000  0.14820000  1
  C  C58  1  0.00480000  0.71990000  0.84440000  1
  C  C59  1  0.00480000  0.78010000  0.65560000  1
  C  C60  1  0.01530000  0.06050000  0.21010000  1
  C  C61  1  0.01530000  0.43950000  0.28990000  1
  C  C62  1  0.03960000  0.70280000  0.67370000  1
  C  C63  1  0.03960000  0.79720000  0.82630000  1
  C  C64  1  0.05120000  0.14310000  0.18630000  1
  C  C65  1  0.05120000  0.35690000  0.31370000  1
  C  C66  1  0.09960000  0.23810000  0.64950000  1
  C  C67  1  0.09960000  0.26190000  0.85050000  1
  C  C68  1  0.11650000  0.20250000  0.58250000  1
  C  C69  1  0.11650000  0.29750000  0.91750000  1
  C  C70  1  0.12160000  0.20010000  0.35210000  1
  C  C71  1  0.12160000  0.29990000  0.14790000  1
  C  C72  1  0.12280000  0.23260000  0.94980000  1
  C  C73  1  0.12280000  0.26740000  0.55020000  1
  C  C74  1  0.12680000  0.10520000  0.55220000  1
  C  C75  1  0.12680000  0.39480000  0.94780000  1
  C  C76  1  0.13600000  0.23690000  0.48880000  1
  C  C77  1  0.13600000  0.26310000  0.01120000  1
  C  C78  1  0.14150000  0.07390000  0.49030000  1
  C  C79  1  0.14150000  0.42610000  0.00970000  1
  C  C80  1  0.14450000  0.13970000  0.45820000  1
  C  C81  1  0.14450000  0.36030000  0.04180000  1
  C  C82  1  0.17740000  0.15990000  0.17790000  1
  C  C83  1  0.17740000  0.34010000  0.32210000  1
  C  C84  1  0.17980000  0.75000000  0.25000000  1
  C  C85  1  0.21160000  0.23850000  0.15900000  1
  C  C86  1  0.21160000  0.26150000  0.34100000  1
  C  C87  1  0.29340000  0.01330000  0.69090000  1
  C  C88  1  0.29340000  0.48670000  0.80910000  1
  C  C89  1  0.32200000  0.06790000  0.36160000  1
  C  C90  1  0.32200000  0.43210000  0.13840000  1
  C  C91  1  0.35010000  0.50490000  0.19070000  1
  C  C92  1  0.35010000  0.99510000  0.30930000  1
  C  C93  1  0.42190000  0.11420000  0.39770000  1
  C  C94  1  0.42190000  0.38580000  0.10230000  1
  C  C95  1  0.42610000  0.51670000  0.82910000  1
  C  C96  1  0.42610000  0.98330000  0.67090000  1
  C  C97  1  0.45340000  0.58860000  0.88130000  1
  C  C98  1  0.45340000  0.91140000  0.61870000  1
  C  C99  1  0.47290000  0.52980000  0.20710000  1
  C  C100  1  0.47290000  0.97020000  0.29290000  1
  C  C101  1  0.52710000  0.02980000  0.70710000  1
  C  C102  1  0.52710000  0.47020000  0.79290000  1
  C  C103  1  0.54660000  0.08860000  0.38130000  1
  C  C104  1  0.54660000  0.41140000  0.11870000  1
  C  C105  1  0.57390000  0.01670000  0.32910000  1
  C  C106  1  0.57390000  0.48330000  0.17090000  1
  C  C107  1  0.57810000  0.61420000  0.89770000  1
  C  C108  1  0.57810000  0.88580000  0.60230000  1
  C  C109  1  0.64990000  0.00490000  0.69070000  1
  C  C110  1  0.64990000  0.49510000  0.80930000  1
  C  C111  1  0.67800000  0.56790000  0.86160000  1
  C  C112  1  0.67800000  0.93210000  0.63840000  1
  C  C113  1  0.70660000  0.51330000  0.19090000  1
  C  C114  1  0.70660000  0.98670000  0.30910000  1
  C  C115  1  0.78840000  0.73850000  0.65900000  1
  C  C116  1  0.78840000  0.76150000  0.84100000  1
  C  C117  1  0.82020000  0.25000000  0.75000000  1
  C  C118  1  0.82260000  0.65990000  0.67790000  1
  C  C119  1  0.82260000  0.84010000  0.82210000  1
  C  C120  1  0.85550000  0.63970000  0.95820000  1
  C  C121  1  0.85550000  0.86030000  0.54180000  1
  C  C122  1  0.85850000  0.57390000  0.99030000  1
  C  C123  1  0.85850000  0.92610000  0.50970000  1
  C  C124  1  0.86400000  0.73690000  0.98880000  1
  C  C125  1  0.86400000  0.76310000  0.51120000  1
  C  C126  1  0.87320000  0.60520000  0.05220000  1
  C  C127  1  0.87320000  0.89480000  0.44780000  1
  C  C128  1  0.87720000  0.73260000  0.44980000  1
  C  C129  1  0.87720000  0.76740000  0.05020000  1
  C  C130  1  0.87840000  0.70010000  0.85210000  1
  C  C131  1  0.87840000  0.79990000  0.64790000  1
  C  C132  1  0.88350000  0.70250000  0.08250000  1
  C  C133  1  0.88350000  0.79750000  0.41750000  1
  C  C134  1  0.90040000  0.73810000  0.14950000  1
  C  C135  1  0.90040000  0.76190000  0.35050000  1
  C  C136  1  0.94880000  0.64310000  0.68630000  1
  C  C137  1  0.94880000  0.85690000  0.81370000  1
  C  C138  1  0.96040000  0.20280000  0.17370000  1
  C  C139  1  0.96040000  0.29720000  0.32630000  1
  C  C140  1  0.98470000  0.56050000  0.71010000  1
  C  C141  1  0.98470000  0.93950000  0.78990000  1
  C  C142  1  0.99520000  0.21990000  0.34440000  1
  C  C143  1  0.99520000  0.28010000  0.15560000  1
  O  O144  1  0.07520000  0.01390000  0.35051000  1
  O  O145  1  0.07520000  0.48610000  0.14949000  1
  O  O146  1  0.08920000  0.17300000  0.82713000  1
  O  O147  1  0.08920000  0.32700000  0.67287000  1
  O  O148  1  0.09830000  0.00630000  0.22062000  1
  O  O149  1  0.09830000  0.49370000  0.27938000  1
  O  O150  1  0.09900000  0.17790000  0.67739000  1
  O  O151  1  0.09900000  0.32210000  0.82261000  1
  O  O152  1  0.09930000  0.55040000  0.72199000  1
  O  O153  1  0.09930000  0.94960000  0.77801000  1
  O  O154  1  0.13280000  0.67330000  0.24817000  1
  O  O155  1  0.13280000  0.82670000  0.25183000  1
  O  O156  1  0.20270000  0.53000000  0.84134000  1
  O  O157  1  0.20270000  0.97000000  0.65866000  1
  O  O158  1  0.27530000  0.08060000  0.73828000  1
  O  O159  1  0.27530000  0.41940000  0.76172000  1
  O  O160  1  0.72470000  0.58060000  0.23828000  1
  O  O161  1  0.72470000  0.91940000  0.26172000  1
  O  O162  1  0.79730000  0.03000000  0.34134000  1
  O  O163  1  0.79730000  0.47000000  0.15866000  1
  O  O164  1  0.86720000  0.17330000  0.74817000  1
  O  O165  1  0.86720000  0.32670000  0.75183000  1
  O  O166  1  0.90070000  0.05040000  0.22199000  1
  O  O167  1  0.90070000  0.44960000  0.27801000  1
  O  O168  1  0.90100000  0.67790000  0.17739000  1
  O  O169  1  0.90100000  0.82210000  0.32261000  1
  O  O170  1  0.90170000  0.50630000  0.72062000  1
  O  O171  1  0.90170000  0.99370000  0.77938000  1
  O  O172  1  0.91080000  0.67300000  0.32713000  1
  O  O173  1  0.91080000  0.82700000  0.17287000  1
  O  O174  1  0.92480000  0.51390000  0.85051000  1
  O  O175  1  0.92480000  0.98610000  0.64949000  1
