# generated using pymatgen
data_NiH16(C12N5)2
_symmetry_space_group_name_H-M   'P 1'
_cell_length_a   9.11300000
_cell_length_b   15.90400000
_cell_length_c   16.01400000
_cell_angle_alpha   73.48800000
_cell_angle_beta   74.01600000
_cell_angle_gamma   76.26400000
_symmetry_Int_Tables_number   1
_chemical_formula_structural   NiH16(C12N5)2
_chemical_formula_sum   'Ni3 H48 C72 N30'
_cell_volume   2107.06670807
_cell_formula_units_Z   3
loop_
 _symmetry_equiv_pos_site_id
 _symmetry_equiv_pos_as_xyz
  1  'x, y, z'
loop_
 _atom_site_type_symbol
 _atom_site_label
 _atom_site_symmetry_multiplicity
 _atom_site_fract_x
 _atom_site_fract_y
 _atom_site_fract_z
 _atom_site_occupancy
  Ni  Ni0  1  0.00000000  0.00000000  0.00000000  1
  Ni  Ni1  1  0.50000000  0.00000000  0.50000000  1
  Ni  Ni2  1  0.50000000  0.50000000  0.50000000  1
  H  H3  1  0.00940000  0.08760000  0.35030000  1
  H  H4  1  0.03120000  0.10840000  0.79520000  1
  H  H5  1  0.06190000  0.75770000  0.68330000  1
  H  H6  1  0.06210000  0.34220000  0.48670000  1
  H  H7  1  0.11590000  0.89590000  0.83900000  1
  H  H8  1  0.12870000  0.22910000  0.69840000  1
  H  H9  1  0.13510000  0.15740000  0.99290000  1
  H  H10  1  0.14240000  0.54320000  0.52990000  1
  H  H11  1  0.23660000  0.27760000  0.90320000  1
  H  H12  1  0.23970000  0.82230000  0.39620000  1
  H  H13  1  0.24350000  0.10130000  0.23610000  1
  H  H14  1  0.27210000  0.32260000  0.35560000  1
  H  H15  1  0.31550000  0.36220000  0.47200000  1
  H  H16  1  0.31590000  0.11160000  0.35850000  1
  H  H17  1  0.32040000  0.69820000  0.63820000  1
  H  H18  1  0.32320000  0.80530000  0.78250000  1
  H  H19  1  0.39060000  0.38720000  0.20990000  1
  H  H20  1  0.40290000  0.11550000  0.63990000  1
  H  H21  1  0.43330000  0.70250000  0.41430000  1
  H  H22  1  0.45460000  0.50890000  0.81260000  1
  H  H23  1  0.46110000  0.23530000  0.15450000  1
  H  H24  1  0.46750000  0.12950000  0.76200000  1
  H  H25  1  0.47150000  0.17930000  0.03140000  1
  H  H26  1  0.49380000  0.78960000  0.56630000  1
  H  H27  1  0.50620000  0.21040000  0.43370000  1
  H  H28  1  0.52850000  0.82070000  0.96860000  1
  H  H29  1  0.53250000  0.87050000  0.23800000  1
  H  H30  1  0.53890000  0.76470000  0.84550000  1
  H  H31  1  0.54540000  0.49110000  0.18740000  1
  H  H32  1  0.56670000  0.29750000  0.58570000  1
  H  H33  1  0.59710000  0.88450000  0.36010000  1
  H  H34  1  0.60940000  0.61280000  0.79010000  1
  H  H35  1  0.67680000  0.19470000  0.21750000  1
  H  H36  1  0.67960000  0.30180000  0.36180000  1
  H  H37  1  0.68410000  0.88840000  0.64150000  1
  H  H38  1  0.68450000  0.63780000  0.52800000  1
  H  H39  1  0.72790000  0.67740000  0.64440000  1
  H  H40  1  0.75650000  0.89870000  0.76390000  1
  H  H41  1  0.76030000  0.17770000  0.60380000  1
  H  H42  1  0.76340000  0.72240000  0.09680000  1
  H  H43  1  0.85760000  0.45680000  0.47010000  1
  H  H44  1  0.86490000  0.84260000  0.00710000  1
  H  H45  1  0.87130000  0.77090000  0.30160000  1
  H  H46  1  0.88410000  0.10410000  0.16100000  1
  H  H47  1  0.93790000  0.65780000  0.51330000  1
  H  H48  1  0.93810000  0.24230000  0.31670000  1
  H  H49  1  0.96880000  0.89160000  0.20480000  1
  H  H50  1  0.99060000  0.91240000  0.64970000  1
  C  C51  1  0.03860000  0.66950000  0.49370000  1
  C  C52  1  0.06030000  0.16680000  0.54860000  1
  C  C53  1  0.06430000  0.75440000  0.45590000  1
  C  C54  1  0.07370000  0.14300000  0.81730000  1
  C  C55  1  0.09390000  0.88630000  0.63400000  1
  C  C56  1  0.13140000  0.21600000  0.75840000  1
  C  C57  1  0.13450000  0.17140000  0.93250000  1
  C  C58  1  0.13530000  0.79430000  0.65340000  1
  C  C59  1  0.16300000  0.60050000  0.50290000  1
  C  C60  1  0.16790000  0.03570000  0.57000000  1
  C  C61  1  0.19280000  0.26890000  0.78940000  1
  C  C62  1  0.19460000  0.24440000  0.87930000  1
  C  C63  1  0.20100000  0.88050000  0.86510000  1
  C  C64  1  0.20300000  0.93820000  0.59230000  1
  C  C65  1  0.21550000  0.76600000  0.42470000  1
  C  C66  1  0.26260000  0.34540000  0.73110000  1
  C  C67  1  0.28770000  0.75960000  0.62700000  1
  C  C68  1  0.29730000  0.93120000  0.04520000  1
  C  C69  1  0.31460000  0.05570000  0.26130000  1
  C  C70  1  0.31560000  0.89070000  0.97190000  1
  C  C71  1  0.31890000  0.97280000  0.15170000  1
  C  C72  1  0.32340000  0.82650000  0.83090000  1
  C  C73  1  0.33130000  0.69320000  0.43610000  1
  C  C74  1  0.33590000  0.36410000  0.34490000  1
  C  C75  1  0.35840000  0.06180000  0.33490000  1
  C  C76  1  0.36250000  0.38820000  0.41390000  1
  C  C77  1  0.37410000  0.98370000  0.22510000  1
  C  C78  1  0.38660000  0.44960000  0.68990000  1
  C  C79  1  0.39070000  0.81480000  0.58440000  1
  C  C80  1  0.40590000  0.40280000  0.25830000  1
  C  C81  1  0.44480000  0.83590000  0.94140000  1
  C  C82  1  0.45110000  0.80230000  0.86820000  1
  C  C83  1  0.47670000  0.07140000  0.66450000  1
  C  C84  1  0.48000000  0.51430000  0.68300000  1
  C  C85  1  0.48490000  0.91940000  0.26240000  1
  C  C86  1  0.49810000  0.46420000  0.24510000  1
  C  C87  1  0.50190000  0.53580000  0.75490000  1
  C  C88  1  0.51510000  0.08060000  0.73760000  1
  C  C89  1  0.52000000  0.48570000  0.31700000  1
  C  C90  1  0.52330000  0.92860000  0.33550000  1
  C  C91  1  0.54890000  0.19770000  0.13180000  1
  C  C92  1  0.55520000  0.16410000  0.05860000  1
  C  C93  1  0.59410000  0.59720000  0.74170000  1
  C  C94  1  0.60930000  0.18520000  0.41560000  1
  C  C95  1  0.61340000  0.55040000  0.31010000  1
  C  C96  1  0.62590000  0.01630000  0.77490000  1
  C  C97  1  0.63750000  0.61180000  0.58610000  1
  C  C98  1  0.64160000  0.93820000  0.66510000  1
  C  C99  1  0.66410000  0.63590000  0.65510000  1
  C  C100  1  0.66870000  0.30680000  0.56390000  1
  C  C101  1  0.67660000  0.17350000  0.16910000  1
  C  C102  1  0.68110000  0.02720000  0.84830000  1
  C  C103  1  0.68440000  0.10930000  0.02810000  1
  C  C104  1  0.68540000  0.94430000  0.73870000  1
  C  C105  1  0.70270000  0.06880000  0.95480000  1
  C  C106  1  0.71230000  0.24040000  0.37300000  1
  C  C107  1  0.73740000  0.65460000  0.26890000  1
  C  C108  1  0.78450000  0.23400000  0.57530000  1
  C  C109  1  0.79700000  0.06180000  0.40770000  1
  C  C110  1  0.79900000  0.11950000  0.13490000  1
  C  C111  1  0.80540000  0.75560000  0.12070000  1
  C  C112  1  0.80720000  0.73110000  0.21060000  1
  C  C113  1  0.83210000  0.96430000  0.43000000  1
  C  C114  1  0.83700000  0.39950000  0.49710000  1
  C  C115  1  0.86470000  0.20570000  0.34660000  1
  C  C116  1  0.86550000  0.82860000  0.06750000  1
  C  C117  1  0.86860000  0.78400000  0.24160000  1
  C  C118  1  0.90610000  0.11370000  0.36600000  1
  C  C119  1  0.92630000  0.85700000  0.18270000  1
  C  C120  1  0.93570000  0.24560000  0.54410000  1
  C  C121  1  0.93970000  0.83320000  0.45140000  1
  C  C122  1  0.96140000  0.33050000  0.50630000  1
  N  N123  1  0.02590000  0.08410000  0.58570000  1
  N  N124  1  0.07530000  0.11910000  0.90420000  1
  N  N125  1  0.16860000  0.98930000  0.06560000  1
  N  N126  1  0.18120000  0.01800000  0.13500000  1
  N  N127  1  0.19100000  0.91410000  0.93400000  1
  N  N128  1  0.21060000  0.17020000  0.51210000  1
  N  N129  1  0.28060000  0.08220000  0.52710000  1
  N  N130  1  0.28150000  0.36720000  0.64340000  1
  N  N131  1  0.30780000  0.61140000  0.47570000  1
  N  N132  1  0.32580000  0.39460000  0.76410000  1
  N  N133  1  0.35340000  0.90420000  0.56650000  1
  N  N134  1  0.36300000  0.43620000  0.61590000  1
  N  N135  1  0.39480000  0.91800000  0.09790000  1
  N  N136  1  0.45360000  0.44760000  0.40160000  1
  N  N137  1  0.46190000  0.99680000  0.37360000  1
  N  N138  1  0.53810000  0.00320000  0.62640000  1
  N  N139  1  0.54640000  0.55240000  0.59840000  1
  N  N140  1  0.60520000  0.08200000  0.90210000  1
  N  N141  1  0.63700000  0.56380000  0.38410000  1
  N  N142  1  0.64660000  0.09580000  0.43350000  1
  N  N143  1  0.67420000  0.60540000  0.23590000  1
  N  N144  1  0.69220000  0.38860000  0.52430000  1
  N  N145  1  0.71850000  0.63280000  0.35660000  1
  N  N146  1  0.71940000  0.91780000  0.47290000  1
  N  N147  1  0.78940000  0.82980000  0.48790000  1
  N  N148  1  0.80900000  0.08590000  0.06600000  1
  N  N149  1  0.81880000  0.98200000  0.86500000  1
  N  N150  1  0.83140000  0.01070000  0.93440000  1
  N  N151  1  0.92470000  0.88090000  0.09580000  1
  N  N152  1  0.97410000  0.91590000  0.41430000  1
