# generated using pymatgen
data_MnH4(C2O)4
_symmetry_space_group_name_H-M   'P 1'
_cell_length_a   10.71150000
_cell_length_b   13.50900000
_cell_length_c   14.39200000
_cell_angle_alpha   76.73450000
_cell_angle_beta   68.15280000
_cell_angle_gamma   66.64310000
_symmetry_Int_Tables_number   1
_chemical_formula_structural   MnH4(C2O)4
_chemical_formula_sum   'Mn6 H24 C48 O24'
_cell_volume   1766.35399860
_cell_formula_units_Z   6
loop_
 _symmetry_equiv_pos_site_id
 _symmetry_equiv_pos_as_xyz
  1  'x, y, z'
loop_
 _atom_site_type_symbol
 _atom_site_label
 _atom_site_symmetry_multiplicity
 _atom_site_fract_x
 _atom_site_fract_y
 _atom_site_fract_z
 _atom_site_occupancy
  Mn  Mn0  1  0.00572000  0.96088000  0.39062000  1
  Mn  Mn1  1  0.28246000  0.75000000  0.25000000  1
  Mn  Mn2  1  0.35722000  0.53912000  0.10938000  1
  Mn  Mn3  1  0.64278000  0.46088000  0.89062000  1
  Mn  Mn4  1  0.71754000  0.25000000  0.75000000  1
  Mn  Mn5  1  0.99428000  0.03912000  0.60938000  1
  H  H6  1  0.04590000  0.66190000  0.44850000  1
  H  H7  1  0.07980000  0.37430000  0.38470000  1
  H  H8  1  0.15630000  0.83810000  0.05150000  1
  H  H9  1  0.16120000  0.87430000  0.88470000  1
  H  H10  1  0.20160000  0.18700000  0.24840000  1
  H  H11  1  0.22880000  0.81980000  0.65380000  1
  H  H12  1  0.28430000  0.59020000  0.48940000  1
  H  H13  1  0.29760000  0.31980000  0.15380000  1
  H  H14  1  0.36300000  0.68700000  0.74840000  1
  H  H15  1  0.36390000  0.90980000  0.01060000  1
  H  H16  1  0.40340000  0.45740000  0.59240000  1
  H  H17  1  0.45320000  0.04260000  0.90760000  1
  H  H18  1  0.54680000  0.95740000  0.09240000  1
  H  H19  1  0.59660000  0.54260000  0.40760000  1
  H  H20  1  0.63610000  0.09020000  0.98940000  1
  H  H21  1  0.63700000  0.31300000  0.25160000  1
  H  H22  1  0.70240000  0.68020000  0.84620000  1
  H  H23  1  0.71570000  0.40980000  0.51060000  1
  H  H24  1  0.77120000  0.18020000  0.34620000  1
  H  H25  1  0.79840000  0.81300000  0.75160000  1
  H  H26  1  0.83880000  0.12570000  0.11530000  1
  H  H27  1  0.84370000  0.16190000  0.94850000  1
  H  H28  1  0.92020000  0.62570000  0.61530000  1
  H  H29  1  0.95410000  0.33810000  0.55150000  1
  C  C30  1  0.00070000  0.04430000  0.79370000  1
  C  C31  1  0.00200000  0.02290000  0.89970000  1
  C  C32  1  0.02730000  0.59570000  0.46930000  1
  C  C33  1  0.04740000  0.42560000  0.43140000  1
  C  C34  1  0.07540000  0.52290000  0.39970000  1
  C  C35  1  0.09230000  0.90430000  0.03070000  1
  C  C36  1  0.09560000  0.92560000  0.93140000  1
  C  C37  1  0.16130000  0.54430000  0.29370000  1
  C  C38  1  0.16730000  0.80520000  0.49600000  1
  C  C39  1  0.24470000  0.71850000  0.56150000  1
  C  C40  1  0.26690000  0.74640000  0.63960000  1
  C  C41  1  0.29130000  0.16700000  0.19680000  1
  C  C42  1  0.29800000  0.61010000  0.54310000  1
  C  C43  1  0.29830000  0.97490000  0.24050000  1
  C  C44  1  0.34490000  0.66700000  0.69680000  1
  C  C45  1  0.34710000  0.24640000  0.13960000  1
  C  C46  1  0.36440000  0.05910000  0.17990000  1
  C  C47  1  0.37070000  0.53140000  0.60340000  1
  C  C48  1  0.39660000  0.55910000  0.67990000  1
  C  C49  1  0.45120000  0.88990000  0.95690000  1
  C  C50  1  0.46850000  0.69480000  0.00400000  1
  C  C51  1  0.47530000  0.21850000  0.06150000  1
  C  C52  1  0.48630000  0.47490000  0.74050000  1
  C  C53  1  0.49450000  0.03140000  0.10340000  1
  C  C54  1  0.50550000  0.96860000  0.89660000  1
  C  C55  1  0.51370000  0.52510000  0.25950000  1
  C  C56  1  0.52470000  0.78150000  0.93850000  1
  C  C57  1  0.53150000  0.30520000  0.99600000  1
  C  C58  1  0.54880000  0.11010000  0.04310000  1
  C  C59  1  0.60340000  0.44090000  0.32010000  1
  C  C60  1  0.62930000  0.46860000  0.39660000  1
  C  C61  1  0.63560000  0.94090000  0.82010000  1
  C  C62  1  0.65290000  0.75360000  0.86040000  1
  C  C63  1  0.65510000  0.33300000  0.30320000  1
  C  C64  1  0.70170000  0.02510000  0.75950000  1
  C  C65  1  0.70200000  0.38990000  0.45690000  1
  C  C66  1  0.70870000  0.83300000  0.80320000  1
  C  C67  1  0.73310000  0.25360000  0.36040000  1
  C  C68  1  0.75530000  0.28150000  0.43850000  1
  C  C69  1  0.83270000  0.19480000  0.50400000  1
  C  C70  1  0.83870000  0.45570000  0.70630000  1
  C  C71  1  0.90440000  0.07440000  0.06860000  1
  C  C72  1  0.90770000  0.09570000  0.96930000  1
  C  C73  1  0.92460000  0.47710000  0.60030000  1
  C  C74  1  0.95260000  0.57440000  0.56860000  1
  C  C75  1  0.97270000  0.40430000  0.53070000  1
  C  C76  1  0.99800000  0.97710000  0.10030000  1
  C  C77  1  0.99930000  0.95570000  0.20630000  1
  O  O78  1  0.08052000  0.86616000  0.23420000  1
  O  O79  1  0.08141000  0.97308000  0.73470000  1
  O  O80  1  0.09575000  0.89843000  0.52447000  1
  O  O81  1  0.17125000  0.78350000  0.41400000  1
  O  O82  1  0.18088000  0.63384000  0.26580000  1
  O  O83  1  0.18299000  0.00812000  0.30810000  1
  O  O84  1  0.21081000  0.47308000  0.23470000  1
  O  O85  1  0.36331000  0.87868000  0.21670000  1
  O  O86  1  0.36875000  0.71650000  0.08600000  1
  O  O87  1  0.45869000  0.62132000  0.28330000  1
  O  O88  1  0.48135000  0.39843000  0.02447000  1
  O  O89  1  0.49921000  0.49188000  0.19190000  1
  O  O90  1  0.50079000  0.50812000  0.80810000  1
  O  O91  1  0.51865000  0.60157000  0.97553000  1
  O  O92  1  0.54131000  0.37868000  0.71670000  1
  O  O93  1  0.63125000  0.28350000  0.91400000  1
  O  O94  1  0.63669000  0.12132000  0.78330000  1
  O  O95  1  0.78919000  0.52692000  0.76530000  1
  O  O96  1  0.81701000  0.99188000  0.69190000  1
  O  O97  1  0.81912000  0.36616000  0.73420000  1
  O  O98  1  0.82875000  0.21650000  0.58600000  1
  O  O99  1  0.90425000  0.10157000  0.47553000  1
  O  O100  1  0.91859000  0.02692000  0.26530000  1
  O  O101  1  0.91948000  0.13384000  0.76580000  1
