# generated using pymatgen
data_Mn96H320C832N64Cl49O256
_symmetry_space_group_name_H-M   'P 1'
_cell_length_a   38.14280000
_cell_length_b   38.14280000
_cell_length_c   39.24554173
_cell_angle_alpha   113.52194156
_cell_angle_beta   113.52224156
_cell_angle_gamma   100.29500000
_symmetry_Int_Tables_number   1
_chemical_formula_structural   Mn96H320C832N64Cl49O256
_chemical_formula_sum   'Mn96 H320 C832 N64 Cl49 O256'
_cell_volume   43952.36686024
_cell_formula_units_Z   1
loop_
 _symmetry_equiv_pos_site_id
 _symmetry_equiv_pos_as_xyz
  1  'x, y, z'
loop_
 _atom_site_type_symbol
 _atom_site_label
 _atom_site_symmetry_multiplicity
 _atom_site_fract_x
 _atom_site_fract_y
 _atom_site_fract_z
 _atom_site_occupancy
  Mn  Mn0  1  0.25000000  0.25000000  0.25000000  1
  Mn  Mn1  1  0.75000000  0.75000000  0.75000000  1
  Mn  Mn2  1  0.25000000  0.50000000  0.25000000  1
  Mn  Mn3  1  0.75000000  0.00000000  0.75000000  1
  Mn  Mn4  1  0.25000000  0.75000000  0.25000000  1
  Mn  Mn5  1  0.75000000  0.25000000  0.75000000  1
  Mn  Mn6  1  0.25000000  0.00000000  0.25000000  1
  Mn  Mn7  1  0.75000000  0.50000000  0.75000000  1
  Mn  Mn8  1  0.15830000  0.15830000  0.14617000  1
  Mn  Mn9  1  0.65830000  0.65830000  0.64617000  1
  Mn  Mn10  1  0.15830000  0.65830000  0.14617000  1
  Mn  Mn11  1  0.65830000  0.15830000  0.64617000  1
  Mn  Mn12  1  0.01458000  0.29276000  1.00000000  1
  Mn  Mn13  1  0.51458000  0.79276000  0.50000000  1
  Mn  Mn14  1  0.01458000  0.79276000  0.00000000  1
  Mn  Mn15  1  0.51458000  0.29276000  0.50000000  1
  Mn  Mn16  1  0.51213000  0.51213000  0.35383000  1
  Mn  Mn17  1  0.01213000  0.01213000  0.85383000  1
  Mn  Mn18  1  0.51213000  0.01213000  0.35383000  1
  Mn  Mn19  1  0.01213000  0.51213000  0.85383000  1
  Mn  Mn20  1  0.20725000  0.48542000  1.00000000  1
  Mn  Mn21  1  0.70725000  0.98542000  0.50000000  1
  Mn  Mn22  1  0.20725000  0.98542000  1.00000000  1
  Mn  Mn23  1  0.70725000  0.48542000  0.50000000  1
  Mn  Mn24  1  0.50000000  0.25000000  0.25000000  1
  Mn  Mn25  1  0.00000000  0.75000000  0.75000000  1
  Mn  Mn26  1  0.50000000  0.50000000  0.25000000  1
  Mn  Mn27  1  0.00000000  0.00000000  0.75000000  1
  Mn  Mn28  1  0.50000000  0.75000000  0.25000000  1
  Mn  Mn29  1  1.00000000  0.25000000  0.75000000  1
  Mn  Mn30  1  0.50000000  0.00000000  0.25000000  1
  Mn  Mn31  1  1.00000000  0.50000000  0.75000000  1
  Mn  Mn32  1  0.29276000  0.01458000  0.00000000  1
  Mn  Mn33  1  0.79276000  0.51458000  0.50000000  1
  Mn  Mn34  1  0.29276000  0.51458000  1.00000000  1
  Mn  Mn35  1  0.79276000  0.01458000  0.50000000  1
  Mn  Mn36  1  0.48787000  0.48787000  0.14617000  1
  Mn  Mn37  1  0.98787000  0.98787000  0.64617000  1
  Mn  Mn38  1  0.48787000  0.98787000  0.14617000  1
  Mn  Mn39  1  0.98787000  0.48787000  0.64617000  1
  Mn  Mn40  1  0.48542000  0.20725000  1.00000000  1
  Mn  Mn41  1  0.98542000  0.70725000  0.50000000  1
  Mn  Mn42  1  0.48542000  0.70725000  0.00000000  1
  Mn  Mn43  1  0.98542000  0.20725000  0.50000000  1
  Mn  Mn44  1  0.84170000  0.84170000  0.35383000  1
  Mn  Mn45  1  0.34170000  0.34170000  0.85383000  1
  Mn  Mn46  1  0.84170000  0.34170000  0.35383000  1
  Mn  Mn47  1  0.34170000  0.84170000  0.85383000  1
  Mn  Mn48  1  0.75000000  0.25000000  0.25000000  1
  Mn  Mn49  1  0.25000000  0.75000000  0.75000000  1
  Mn  Mn50  1  0.75000000  0.50000000  0.25000000  1
  Mn  Mn51  1  0.25000000  0.00000000  0.75000000  1
  Mn  Mn52  1  0.75000000  0.75000000  0.25000000  1
  Mn  Mn53  1  0.25000000  0.25000000  0.75000000  1
  Mn  Mn54  1  0.75000000  0.00000000  0.25000000  1
  Mn  Mn55  1  0.25000000  0.50000000  0.75000000  1
  Mn  Mn56  1  0.65830000  0.15830000  0.14617000  1
  Mn  Mn57  1  0.15830000  0.65830000  0.64617000  1
  Mn  Mn58  1  0.65830000  0.65830000  0.14617000  1
  Mn  Mn59  1  0.15830000  0.15830000  0.64617000  1
  Mn  Mn60  1  0.51459000  0.29276000  0.00000000  1
  Mn  Mn61  1  0.01459000  0.79276000  0.50000000  1
  Mn  Mn62  1  0.51459000  0.79276000  0.00000000  1
  Mn  Mn63  1  0.01459000  0.29276000  0.50000000  1
  Mn  Mn64  1  0.01213000  0.51213000  0.35383000  1
  Mn  Mn65  1  0.51213000  0.01213000  0.85383000  1
  Mn  Mn66  1  0.01213000  0.01213000  0.35383000  1
  Mn  Mn67  1  0.51213000  0.51213000  0.85383000  1
  Mn  Mn68  1  0.70725000  0.48542000  0.00000000  1
  Mn  Mn69  1  0.20725000  0.98542000  0.50000000  1
  Mn  Mn70  1  0.70725000  0.98542000  0.00000000  1
  Mn  Mn71  1  0.20725000  0.48542000  0.50000000  1
  Mn  Mn72  1  0.00000000  0.25000000  0.25000000  1
  Mn  Mn73  1  0.50000000  0.75000000  0.75000000  1
  Mn  Mn74  1  1.00000000  0.50000000  0.25000000  1
  Mn  Mn75  1  0.50000000  0.00000000  0.75000000  1
  Mn  Mn76  1  1.00000000  0.75000000  0.25000000  1
  Mn  Mn77  1  0.50000000  0.25000000  0.75000000  1
  Mn  Mn78  1  1.00000000  0.00000000  0.25000000  1
  Mn  Mn79  1  0.50000000  0.50000000  0.75000000  1
  Mn  Mn80  1  0.79276000  0.01458000  0.00000000  1
  Mn  Mn81  1  0.29276000  0.51458000  0.50000000  1
  Mn  Mn82  1  0.79276000  0.51458000  0.00000000  1
  Mn  Mn83  1  0.29276000  0.01458000  0.50000000  1
  Mn  Mn84  1  0.98787000  0.48787000  0.14617000  1
  Mn  Mn85  1  0.48787000  0.98787000  0.64617000  1
  Mn  Mn86  1  0.98787000  0.98787000  0.14617000  1
  Mn  Mn87  1  0.48787000  0.48787000  0.64617000  1
  Mn  Mn88  1  0.98542000  0.20725000  1.00000000  1
  Mn  Mn89  1  0.48542000  0.70725000  0.50000000  1
  Mn  Mn90  1  0.98542000  0.70725000  1.00000000  1
  Mn  Mn91  1  0.48542000  0.20725000  0.50000000  1
  Mn  Mn92  1  0.34170000  0.84170000  0.35383000  1
  Mn  Mn93  1  0.84170000  0.34170000  0.85383000  1
  Mn  Mn94  1  0.34170000  0.34170000  0.35383000  1
  Mn  Mn95  1  0.84170000  0.84170000  0.85383000  1
  H  H96  1  0.21590000  0.33220000  0.20550000  1
  H  H97  1  0.71590000  0.83220000  0.70550000  1
  H  H98  1  0.21590000  0.83220000  0.20550000  1
  H  H99  1  0.71590000  0.33220000  0.70550000  1
  H  H100  1  0.11395000  0.23305000  0.10140000  1
  H  H101  1  0.61395000  0.73305000  0.60140000  1
  H  H102  1  0.13035000  0.34655000  0.11780000  1
  H  H103  1  0.63035000  0.84655000  0.61780000  1
  H  H104  1  0.11395000  0.73305000  0.10140000  1
  H  H105  1  0.61395000  0.23305000  0.60140000  1
  H  H106  1  0.13035000  0.84655000  0.11780000  1
  H  H107  1  0.63035000  0.34655000  0.61780000  1
  H  H108  1  0.35165000  0.62985000  0.27930000  1
  H  H109  1  0.85165000  0.12985000  0.77930000  1
  H  H110  1  0.35165000  0.12985000  0.27930000  1
  H  H111  1  0.85165000  0.62985000  0.77930000  1
  H  H112  1  0.22680000  0.35810000  0.13500000  1
  H  H113  1  0.72680000  0.85810000  0.63500000  1
  H  H114  1  0.22680000  0.85810000  0.13500000  1
  H  H115  1  0.72680000  0.35810000  0.63500000  1
  H  H116  1  0.51255000  0.63165000  0.39860000  1
  H  H117  1  0.01255000  0.13165000  0.89860000  1
  H  H118  1  0.51255000  0.13165000  0.39860000  1
  H  H119  1  0.01255000  0.63165000  0.89860000  1
  H  H120  1  0.33220000  0.21590000  0.20550000  1
  H  H121  1  0.83220000  0.71590000  0.70550000  1
  H  H122  1  0.33220000  0.71590000  0.20550000  1
  H  H123  1  0.83220000  0.21590000  0.70550000  1
  H  H124  1  0.35055000  0.57235000  0.22070000  1
  H  H125  1  0.85055000  0.07235000  0.72070000  1
  H  H126  1  0.35055000  0.07235000  0.22070000  1
  H  H127  1  0.85055000  0.57235000  0.72070000  1
  H  H128  1  0.51255000  0.72875000  0.38220000  1
  H  H129  1  0.01255000  0.22875000  0.88220000  1
  H  H130  1  0.51255000  0.22875000  0.38220000  1
  H  H131  1  0.01255000  0.72875000  0.88220000  1
  H  H132  1  0.23305000  0.11395000  0.10140000  1
  H  H133  1  0.73305000  0.61395000  0.60140000  1
  H  H134  1  0.23305000  0.61395000  0.10140000  1
  H  H135  1  0.73305000  0.11395000  0.60140000  1
  H  H136  1  0.27690000  0.40820000  0.13500000  1
  H  H137  1  0.77690000  0.90820000  0.63500000  1
  H  H138  1  0.27690000  0.90820000  0.13500000  1
  H  H139  1  0.77690000  0.40820000  0.63500000  1
  H  H140  1  0.42765000  0.64945000  0.27930000  1
  H  H141  1  0.92765000  0.14945000  0.77930000  1
  H  H142  1  0.42765000  0.14945000  0.27930000  1
  H  H143  1  0.92765000  0.64945000  0.77930000  1
  H  H144  1  0.37015000  0.64835000  0.22070000  1
  H  H145  1  0.87015000  0.14835000  0.72070000  1
  H  H146  1  0.37015000  0.14835000  0.22070000  1
  H  H147  1  0.87015000  0.64835000  0.72070000  1
  H  H148  1  0.27125000  0.48745000  0.11780000  1
  H  H149  1  0.77125000  0.98745000  0.61780000  1
  H  H150  1  0.27125000  0.98745000  0.11780000  1
  H  H151  1  0.77125000  0.48745000  0.61780000  1
  H  H152  1  0.37330000  0.48960000  0.20550000  1
  H  H153  1  0.87330000  0.98960000  0.70550000  1
  H  H154  1  0.37330000  0.98960000  0.20550000  1
  H  H155  1  0.87330000  0.48960000  0.70550000  1
  H  H156  1  0.51040000  0.62670000  0.29450000  1
  H  H157  1  0.01040000  0.12670000  0.79450000  1
  H  H158  1  0.51040000  0.12670000  0.29450000  1
  H  H159  1  0.01040000  0.62670000  0.79450000  1
  H  H160  1  0.35810000  0.22680000  0.13500000  1
  H  H161  1  0.85810000  0.72680000  0.63500000  1
  H  H162  1  0.35810000  0.72680000  0.13500000  1
  H  H163  1  0.85810000  0.22680000  0.63500000  1
  H  H164  1  0.59180000  0.72310000  0.36500000  1
  H  H165  1  0.09180000  0.22310000  0.86500000  1
  H  H166  1  0.59180000  0.22310000  0.36500000  1
  H  H167  1  0.09180000  0.72310000  0.86500000  1
  H  H168  1  0.34655000  0.13035000  0.11780000  1
  H  H169  1  0.84655000  0.63035000  0.61780000  1
  H  H170  1  0.34655000  0.63035000  0.11780000  1
  H  H171  1  0.84655000  0.13035000  0.61780000  1
  H  H172  1  0.63165000  0.51255000  0.39860000  1
  H  H173  1  0.13165000  0.01255000  0.89860000  1
  H  H174  1  0.63165000  0.01255000  0.39860000  1
  H  H175  1  0.13165000  0.51255000  0.89860000  1
  H  H176  1  0.36835000  0.48745000  0.10140000  1
  H  H177  1  0.86835000  0.98745000  0.60140000  1
  H  H178  1  0.36835000  0.98745000  0.10140000  1
  H  H179  1  0.86835000  0.48745000  0.60140000  1
  H  H180  1  0.65345000  0.86965000  0.38220000  1
  H  H181  1  0.15345000  0.36965000  0.88220000  1
  H  H182  1  0.65345000  0.36965000  0.38220000  1
  H  H183  1  0.15345000  0.86965000  0.88220000  1
  H  H184  1  0.40820000  0.27690000  0.13500000  1
  H  H185  1  0.90820000  0.77690000  0.63500000  1
  H  H186  1  0.40820000  0.77690000  0.13500000  1
  H  H187  1  0.90820000  0.27690000  0.63500000  1
  H  H188  1  0.64190000  0.77320000  0.36500000  1
  H  H189  1  0.14190000  0.27320000  0.86500000  1
  H  H190  1  0.64190000  0.27320000  0.36500000  1
  H  H191  1  0.14190000  0.77320000  0.86500000  1
  H  H192  1  0.48960000  0.37330000  0.20550000  1
  H  H193  1  0.98960000  0.87330000  0.70550000  1
  H  H194  1  0.48960000  0.87330000  0.20550000  1
  H  H195  1  0.98960000  0.37330000  0.70550000  1
  H  H196  1  0.62670000  0.51040000  0.29450000  1
  H  H197  1  0.12670000  0.01040000  0.79450000  1
  H  H198  1  0.62670000  0.01040000  0.29450000  1
  H  H199  1  0.12670000  0.51040000  0.79450000  1
  H  H200  1  0.72875000  0.51255000  0.38220000  1
  H  H201  1  0.22875000  0.01255000  0.88220000  1
  H  H202  1  0.72875000  0.01255000  0.38220000  1
  H  H203  1  0.22875000  0.51255000  0.88220000  1
  H  H204  1  0.62985000  0.35165000  0.27930000  1
  H  H205  1  0.12985000  0.85165000  0.77930000  1
  H  H206  1  0.62985000  0.85165000  0.27930000  1
  H  H207  1  0.12985000  0.35165000  0.77930000  1
  H  H208  1  0.57235000  0.35055000  0.22070000  1
  H  H209  1  0.07235000  0.85055000  0.72070000  1
  H  H210  1  0.57235000  0.85055000  0.22070000  1
  H  H211  1  0.07235000  0.35055000  0.72070000  1
  H  H212  1  0.72310000  0.59180000  0.36500000  1
  H  H213  1  0.22310000  0.09180000  0.86500000  1
  H  H214  1  0.72310000  0.09180000  0.36500000  1
  H  H215  1  0.22310000  0.59180000  0.86500000  1
  H  H216  1  0.76695000  0.88605000  0.39860000  1
  H  H217  1  0.26695000  0.38605000  0.89860000  1
  H  H218  1  0.76695000  0.38605000  0.39860000  1
  H  H219  1  0.26695000  0.88605000  0.89860000  1
  H  H220  1  0.48745000  0.27125000  0.11780000  1
  H  H221  1  0.98745000  0.77125000  0.61780000  1
  H  H222  1  0.48745000  0.77125000  0.11780000  1
  H  H223  1  0.98745000  0.27125000  0.61780000  1
  H  H224  1  0.64945000  0.42765000  0.27930000  1
  H  H225  1  0.14945000  0.92765000  0.77930000  1
  H  H226  1  0.64945000  0.92765000  0.27930000  1
  H  H227  1  0.14945000  0.42765000  0.77930000  1
  H  H228  1  0.66780000  0.78410000  0.29450000  1
  H  H229  1  0.16780000  0.28410000  0.79450000  1
  H  H230  1  0.66780000  0.28410000  0.29450000  1
  H  H231  1  0.16780000  0.78410000  0.79450000  1
  H  H232  1  0.48745000  0.36835000  0.10140000  1
  H  H233  1  0.98745000  0.86835000  0.60140000  1
  H  H234  1  0.48745000  0.86835000  0.10140000  1
  H  H235  1  0.98745000  0.36835000  0.60140000  1
  H  H236  1  0.77320000  0.64190000  0.36500000  1
  H  H237  1  0.27320000  0.14190000  0.86500000  1
  H  H238  1  0.77320000  0.14190000  0.36500000  1
  H  H239  1  0.27320000  0.64190000  0.86500000  1
  H  H240  1  0.64835000  0.37015000  0.22070000  1
  H  H241  1  0.14835000  0.87015000  0.72070000  1
  H  H242  1  0.64835000  0.87015000  0.22070000  1
  H  H243  1  0.14835000  0.37015000  0.72070000  1
  H  H244  1  0.86965000  0.65345000  0.38220000  1
  H  H245  1  0.36965000  0.15345000  0.88220000  1
  H  H246  1  0.88605000  0.76695000  0.39860000  1
  H  H247  1  0.38605000  0.26695000  0.89860000  1
  H  H248  1  0.86965000  0.15345000  0.38220000  1
  H  H249  1  0.36965000  0.65345000  0.88220000  1
  H  H250  1  0.88605000  0.26695000  0.39860000  1
  H  H251  1  0.38605000  0.76695000  0.89860000  1
  H  H252  1  0.78410000  0.66780000  0.29450000  1
  H  H253  1  0.28410000  0.16780000  0.79450000  1
  H  H254  1  0.78410000  0.16780000  0.29450000  1
  H  H255  1  0.28410000  0.66780000  0.79450000  1
  H  H256  1  0.71590000  0.33220000  0.20550000  1
  H  H257  1  0.21590000  0.83220000  0.70550000  1
  H  H258  1  0.71590000  0.83220000  0.20550000  1
  H  H259  1  0.21590000  0.33220000  0.70550000  1
  H  H260  1  0.61395000  0.23305000  0.10140000  1
  H  H261  1  0.11395000  0.73305000  0.60140000  1
  H  H262  1  0.63035000  0.34655000  0.11780000  1
  H  H263  1  0.13035000  0.84655000  0.61780000  1
  H  H264  1  0.61395000  0.73305000  0.10140000  1
  H  H265  1  0.11395000  0.23305000  0.60140000  1
  H  H266  1  0.63035000  0.84655000  0.11780000  1
  H  H267  1  0.13035000  0.34655000  0.61780000  1
  H  H268  1  0.85165000  0.62985000  0.27930000  1
  H  H269  1  0.35165000  0.12985000  0.77930000  1
  H  H270  1  0.85165000  0.12985000  0.27930000  1
  H  H271  1  0.35165000  0.62985000  0.77930000  1
  H  H272  1  0.72680000  0.35810000  0.13500000  1
  H  H273  1  0.22680000  0.85810000  0.63500000  1
  H  H274  1  0.72680000  0.85810000  0.13500000  1
  H  H275  1  0.22680000  0.35810000  0.63500000  1
  H  H276  1  0.01255000  0.63165000  0.39860000  1
  H  H277  1  0.51255000  0.13165000  0.89860000  1
  H  H278  1  0.01255000  0.13165000  0.39860000  1
  H  H279  1  0.51255000  0.63165000  0.89860000  1
  H  H280  1  0.83220000  0.21590000  0.20550000  1
  H  H281  1  0.33220000  0.71590000  0.70550000  1
  H  H282  1  0.83220000  0.71590000  0.20550000  1
  H  H283  1  0.33220000  0.21590000  0.70550000  1
  H  H284  1  0.85055000  0.57235000  0.22070000  1
  H  H285  1  0.35055000  0.07235000  0.72070000  1
  H  H286  1  0.85055000  0.07235000  0.22070000  1
  H  H287  1  0.35055000  0.57235000  0.72070000  1
  H  H288  1  0.01255000  0.72875000  0.38220000  1
  H  H289  1  0.51255000  0.22875000  0.88220000  1
  H  H290  1  0.01255000  0.22875000  0.38220000  1
  H  H291  1  0.51255000  0.72875000  0.88220000  1
  H  H292  1  0.73305000  0.11395000  0.10140000  1
  H  H293  1  0.23305000  0.61395000  0.60140000  1
  H  H294  1  0.73305000  0.61395000  0.10140000  1
  H  H295  1  0.23305000  0.11395000  0.60140000  1
  H  H296  1  0.77690000  0.40820000  0.13500000  1
  H  H297  1  0.27690000  0.90820000  0.63500000  1
  H  H298  1  0.77690000  0.90820000  0.13500000  1
  H  H299  1  0.27690000  0.40820000  0.63500000  1
  H  H300  1  0.92765000  0.64945000  0.27930000  1
  H  H301  1  0.42765000  0.14945000  0.77930000  1
  H  H302  1  0.92765000  0.14945000  0.27930000  1
  H  H303  1  0.42765000  0.64945000  0.77930000  1
  H  H304  1  0.87015000  0.64835000  0.22070000  1
  H  H305  1  0.37015000  0.14835000  0.72070000  1
  H  H306  1  0.87015000  0.14835000  0.22070000  1
  H  H307  1  0.37015000  0.64835000  0.72070000  1
  H  H308  1  0.77125000  0.48745000  0.11780000  1
  H  H309  1  0.27125000  0.98745000  0.61780000  1
  H  H310  1  0.77125000  0.98745000  0.11780000  1
  H  H311  1  0.27125000  0.48745000  0.61780000  1
  H  H312  1  0.87330000  0.48960000  0.20550000  1
  H  H313  1  0.37330000  0.98960000  0.70550000  1
  H  H314  1  0.87330000  0.98960000  0.20550000  1
  H  H315  1  0.37330000  0.48960000  0.70550000  1
  H  H316  1  0.01040000  0.62670000  0.29450000  1
  H  H317  1  0.51040000  0.12670000  0.79450000  1
  H  H318  1  0.01040000  0.12670000  0.29450000  1
  H  H319  1  0.51040000  0.62670000  0.79450000  1
  H  H320  1  0.85810000  0.22680000  0.13500000  1
  H  H321  1  0.35810000  0.72680000  0.63500000  1
  H  H322  1  0.85810000  0.72680000  0.13500000  1
  H  H323  1  0.35810000  0.22680000  0.63500000  1
  H  H324  1  0.09180000  0.72310000  0.36500000  1
  H  H325  1  0.59180000  0.22310000  0.86500000  1
  H  H326  1  0.09180000  0.22310000  0.36500000  1
  H  H327  1  0.59180000  0.72310000  0.86500000  1
  H  H328  1  0.84655000  0.13035000  0.11780000  1
  H  H329  1  0.34655000  0.63035000  0.61780000  1
  H  H330  1  0.84655000  0.63035000  0.11780000  1
  H  H331  1  0.34655000  0.13035000  0.61780000  1
  H  H332  1  0.13165000  0.51255000  0.39860000  1
  H  H333  1  0.63165000  0.01255000  0.89860000  1
  H  H334  1  0.13165000  0.01255000  0.39860000  1
  H  H335  1  0.63165000  0.51255000  0.89860000  1
  H  H336  1  0.86835000  0.48745000  0.10140000  1
  H  H337  1  0.36835000  0.98745000  0.60140000  1
  H  H338  1  0.86835000  0.98745000  0.10140000  1
  H  H339  1  0.36835000  0.48745000  0.60140000  1
  H  H340  1  0.15345000  0.86965000  0.38220000  1
  H  H341  1  0.65345000  0.36965000  0.88220000  1
  H  H342  1  0.15345000  0.36965000  0.38220000  1
  H  H343  1  0.65345000  0.86965000  0.88220000  1
  H  H344  1  0.90820000  0.27690000  0.13500000  1
  H  H345  1  0.40820000  0.77690000  0.63500000  1
  H  H346  1  0.90820000  0.77690000  0.13500000  1
  H  H347  1  0.40820000  0.27690000  0.63500000  1
  H  H348  1  0.14190000  0.77320000  0.36500000  1
  H  H349  1  0.64190000  0.27320000  0.86500000  1
  H  H350  1  0.14190000  0.27320000  0.36500000  1
  H  H351  1  0.64190000  0.77320000  0.86500000  1
  H  H352  1  0.98960000  0.37330000  0.20550000  1
  H  H353  1  0.48960000  0.87330000  0.70550000  1
  H  H354  1  0.98960000  0.87330000  0.20550000  1
  H  H355  1  0.48960000  0.37330000  0.70550000  1
  H  H356  1  0.12670000  0.51040000  0.29450000  1
  H  H357  1  0.62670000  0.01040000  0.79450000  1
  H  H358  1  0.12670000  0.01040000  0.29450000  1
  H  H359  1  0.62670000  0.51040000  0.79450000  1
  H  H360  1  0.22875000  0.51255000  0.38220000  1
  H  H361  1  0.72875000  0.01255000  0.88220000  1
  H  H362  1  0.22875000  0.01255000  0.38220000  1
  H  H363  1  0.72875000  0.51255000  0.88220000  1
  H  H364  1  0.12985000  0.35165000  0.27930000  1
  H  H365  1  0.62985000  0.85165000  0.77930000  1
  H  H366  1  0.12985000  0.85165000  0.27930000  1
  H  H367  1  0.62985000  0.35165000  0.77930000  1
  H  H368  1  0.07235000  0.35055000  0.22070000  1
  H  H369  1  0.57235000  0.85055000  0.72070000  1
  H  H370  1  0.07235000  0.85055000  0.22070000  1
  H  H371  1  0.57235000  0.35055000  0.72070000  1
  H  H372  1  0.22310000  0.59180000  0.36500000  1
  H  H373  1  0.72310000  0.09180000  0.86500000  1
  H  H374  1  0.22310000  0.09180000  0.36500000  1
  H  H375  1  0.72310000  0.59180000  0.86500000  1
  H  H376  1  0.26695000  0.88605000  0.39860000  1
  H  H377  1  0.76695000  0.38605000  0.89860000  1
  H  H378  1  0.26695000  0.38605000  0.39860000  1
  H  H379  1  0.76695000  0.88605000  0.89860000  1
  H  H380  1  0.98745000  0.27125000  0.11780000  1
  H  H381  1  0.48745000  0.77125000  0.61780000  1
  H  H382  1  0.98745000  0.77125000  0.11780000  1
  H  H383  1  0.48745000  0.27125000  0.61780000  1
  H  H384  1  0.14945000  0.42765000  0.27930000  1
  H  H385  1  0.64945000  0.92765000  0.77930000  1
  H  H386  1  0.14945000  0.92765000  0.27930000  1
  H  H387  1  0.64945000  0.42765000  0.77930000  1
  H  H388  1  0.16780000  0.78410000  0.29450000  1
  H  H389  1  0.66780000  0.28410000  0.79450000  1
  H  H390  1  0.16780000  0.28410000  0.29450000  1
  H  H391  1  0.66780000  0.78410000  0.79450000  1
  H  H392  1  0.98745000  0.36835000  0.10140000  1
  H  H393  1  0.48745000  0.86835000  0.60140000  1
  H  H394  1  0.98745000  0.86835000  0.10140000  1
  H  H395  1  0.48745000  0.36835000  0.60140000  1
  H  H396  1  0.27320000  0.64190000  0.36500000  1
  H  H397  1  0.77320000  0.14190000  0.86500000  1
  H  H398  1  0.27320000  0.14190000  0.36500000  1
  H  H399  1  0.77320000  0.64190000  0.86500000  1
  H  H400  1  0.14835000  0.37015000  0.22070000  1
  H  H401  1  0.64835000  0.87015000  0.72070000  1
  H  H402  1  0.14835000  0.87015000  0.22070000  1
  H  H403  1  0.64835000  0.37015000  0.72070000  1
  H  H404  1  0.36965000  0.65345000  0.38220000  1
  H  H405  1  0.86965000  0.15345000  0.88220000  1
  H  H406  1  0.38605000  0.76695000  0.39860000  1
  H  H407  1  0.88605000  0.26695000  0.89860000  1
  H  H408  1  0.36965000  0.15345000  0.38220000  1
  H  H409  1  0.86965000  0.65345000  0.88220000  1
  H  H410  1  0.38605000  0.26695000  0.39860000  1
  H  H411  1  0.88605000  0.76695000  0.89860000  1
  H  H412  1  0.28410000  0.66780000  0.29450000  1
  H  H413  1  0.78410000  0.16780000  0.79450000  1
  H  H414  1  0.28410000  0.16780000  0.29450000  1
  H  H415  1  0.78410000  0.66780000  0.79450000  1
  C  C416  1  0.20047000  0.39297000  0.19294000  1
  C  C417  1  0.70047000  0.89297000  0.69294000  1
  C  C418  1  0.20047000  0.89297000  0.19294000  1
  C  C419  1  0.70047000  0.39297000  0.69294000  1
  C  C420  1  0.17681000  0.34692000  0.16633000  1
  C  C421  1  0.67681000  0.84692000  0.66633000  1
  C  C422  1  0.17681000  0.84692000  0.16633000  1
  C  C423  1  0.67681000  0.34692000  0.66633000  1
  C  C424  1  0.19055000  0.32085000  0.17980000  1
  C  C425  1  0.69055000  0.82085000  0.67980000  1
  C  C426  1  0.19055000  0.82085000  0.17980000  1
  C  C427  1  0.69055000  0.32085000  0.67980000  1
  C  C428  1  0.07365000  0.26885000  0.06250000  1
  C  C429  1  0.57365000  0.76885000  0.56250000  1
  C  C430  1  0.07365000  0.76885000  0.06250000  1
  C  C431  1  0.57365000  0.26885000  0.56250000  1
  C  C432  1  0.16728000  0.27879000  0.15587000  1
  C  C433  1  0.66728000  0.77879000  0.65587000  1
  C  C434  1  0.16728000  0.77879000  0.15587000  1
  C  C435  1  0.66728000  0.27879000  0.65587000  1
  C  C436  1  0.18250000  0.25080000  0.17080000  1
  C  C437  1  0.68250000  0.75080000  0.67080000  1
  C  C438  1  0.18250000  0.75080000  0.17080000  1
  C  C439  1  0.68250000  0.25080000  0.67080000  1
  C  C440  1  0.13947000  0.32947000  0.12754000  1
  C  C441  1  0.63947000  0.82947000  0.62754000  1
  C  C442  1  0.13947000  0.82947000  0.12754000  1
  C  C443  1  0.63947000  0.32947000  0.62754000  1
  C  C444  1  0.12985000  0.26175000  0.11770000  1
  C  C445  1  0.62985000  0.76175000  0.61770000  1
  C  C446  1  0.12985000  0.76175000  0.11770000  1
  C  C447  1  0.62985000  0.26175000  0.61770000  1
  C  C448  1  0.11542000  0.28703000  0.10315000  1
  C  C449  1  0.61542000  0.78703000  0.60315000  1
  C  C450  1  0.11542000  0.78703000  0.10315000  1
  C  C451  1  0.61542000  0.28703000  0.60315000  1
  C  C452  1  0.30804000  0.58366000  0.27600000  1
  C  C453  1  0.80804000  0.08366000  0.77600000  1
  C  C454  1  0.30804000  0.08366000  0.27600000  1
  C  C455  1  0.80804000  0.58366000  0.77600000  1
  C  C456  1  0.22842000  0.41076000  0.18438000  1
  C  C457  1  0.72842000  0.91076000  0.68438000  1
  C  C458  1  0.22842000  0.91076000  0.18438000  1
  C  C459  1  0.72842000  0.41076000  0.68438000  1
  C  C460  1  0.33605000  0.60155000  0.26600000  1
  C  C461  1  0.83605000  0.10155000  0.76600000  1
  C  C462  1  0.33605000  0.10155000  0.26600000  1
  C  C463  1  0.83605000  0.60155000  0.76600000  1
  C  C464  1  0.51115000  0.70635000  0.43750000  1
  C  C465  1  0.01115000  0.20635000  0.93750000  1
  C  C466  1  0.51115000  0.20635000  0.43750000  1
  C  C467  1  0.01115000  0.70635000  0.93750000  1
  C  C468  1  0.25080000  0.18250000  0.17080000  1
  C  C469  1  0.75080000  0.68250000  0.67080000  1
  C  C470  1  0.25080000  0.68250000  0.17080000  1
  C  C471  1  0.75080000  0.18250000  0.67080000  1
  C  C472  1  0.30766000  0.53204000  0.22400000  1
  C  C473  1  0.80766000  0.03204000  0.72400000  1
  C  C474  1  0.30766000  0.03204000  0.22400000  1
  C  C475  1  0.80766000  0.53204000  0.72400000  1
  C  C476  1  0.23775000  0.38705000  0.15240000  1
  C  C477  1  0.73775000  0.88705000  0.65240000  1
  C  C478  1  0.23775000  0.88705000  0.15240000  1
  C  C479  1  0.73775000  0.38705000  0.65240000  1
  C  C480  1  0.27362000  0.45596000  0.18438000  1
  C  C481  1  0.77362000  0.95596000  0.68438000  1
  C  C482  1  0.27362000  0.95596000  0.18438000  1
  C  C483  1  0.77362000  0.45596000  0.68438000  1
  C  C484  1  0.33555000  0.57005000  0.23400000  1
  C  C485  1  0.83555000  0.07005000  0.73400000  1
  C  C486  1  0.33555000  0.07005000  0.23400000  1
  C  C487  1  0.83555000  0.57005000  0.73400000  1
  C  C488  1  0.29997000  0.49247000  0.19294000  1
  C  C489  1  0.79997000  0.99247000  0.69294000  1
  C  C490  1  0.29997000  0.99247000  0.19294000  1
  C  C491  1  0.79997000  0.49247000  0.69294000  1
  C  C492  1  0.26535000  0.41465000  0.15240000  1
  C  C493  1  0.76535000  0.91465000  0.65240000  1
  C  C494  1  0.26535000  0.91465000  0.15240000  1
  C  C495  1  0.76535000  0.41465000  0.65240000  1
  C  C496  1  0.51228000  0.68388000  0.39685000  1
  C  C497  1  0.01228000  0.18388000  0.89685000  1
  C  C498  1  0.51228000  0.18388000  0.39685000  1
  C  C499  1  0.01228000  0.68388000  0.89685000  1
  C  C500  1  0.27879000  0.16728000  0.15587000  1
  C  C501  1  0.77879000  0.66728000  0.65587000  1
  C  C502  1  0.27879000  0.66728000  0.15587000  1
  C  C503  1  0.77879000  0.16728000  0.65587000  1
  C  C504  1  0.51215000  0.64405000  0.38230000  1
  C  C505  1  0.01215000  0.14405000  0.88230000  1
  C  C506  1  0.51215000  0.14405000  0.38230000  1
  C  C507  1  0.01215000  0.64405000  0.88230000  1
  C  C508  1  0.51193000  0.70193000  0.37246000  1
  C  C509  1  0.01193000  0.20193000  0.87246000  1
  C  C510  1  0.51193000  0.20193000  0.37246000  1
  C  C511  1  0.01193000  0.70193000  0.87246000  1
  C  C512  1  0.32085000  0.19055000  0.17980000  1
  C  C513  1  0.82085000  0.69055000  0.67980000  1
  C  C514  1  0.32085000  0.69055000  0.17980000  1
  C  C515  1  0.82085000  0.19055000  0.67980000  1
  C  C516  1  0.26175000  0.12985000  0.11770000  1
  C  C517  1  0.76175000  0.62985000  0.61770000  1
  C  C518  1  0.26175000  0.62985000  0.11770000  1
  C  C519  1  0.76175000  0.12985000  0.61770000  1
  C  C520  1  0.31942000  0.48952000  0.16633000  1
  C  C521  1  0.81942000  0.98952000  0.66633000  1
  C  C522  1  0.31942000  0.98952000  0.16633000  1
  C  C523  1  0.81942000  0.48952000  0.66633000  1
  C  C524  1  0.42995000  0.66445000  0.26600000  1
  C  C525  1  0.92995000  0.16445000  0.76600000  1
  C  C526  1  0.42995000  0.16445000  0.26600000  1
  C  C527  1  0.92995000  0.66445000  0.76600000  1
  C  C528  1  0.39845000  0.66395000  0.23400000  1
  C  C529  1  0.89845000  0.16395000  0.73400000  1
  C  C530  1  0.39845000  0.16395000  0.23400000  1
  C  C531  1  0.89845000  0.66395000  0.73400000  1
  C  C532  1  0.51142000  0.62292000  0.34413000  1
  C  C533  1  0.01142000  0.12292000  0.84413000  1
  C  C534  1  0.51142000  0.12292000  0.34413000  1
  C  C535  1  0.01142000  0.62292000  0.84413000  1
  C  C536  1  0.29807000  0.48807000  0.12754000  1
  C  C537  1  0.79807000  0.98807000  0.62754000  1
  C  C538  1  0.29807000  0.98807000  0.12754000  1
  C  C539  1  0.79807000  0.48807000  0.62754000  1
  C  C540  1  0.51049000  0.68059000  0.33367000  1
  C  C541  1  0.01049000  0.18059000  0.83367000  1
  C  C542  1  0.51049000  0.18059000  0.33367000  1
  C  C543  1  0.01049000  0.68059000  0.83367000  1
  C  C544  1  0.35895000  0.48925000  0.17980000  1
  C  C545  1  0.85895000  0.98925000  0.67980000  1
  C  C546  1  0.35895000  0.98925000  0.17980000  1
  C  C547  1  0.85895000  0.48925000  0.67980000  1
  C  C548  1  0.34692000  0.17682000  0.16633000  1
  C  C549  1  0.84692000  0.67682000  0.66633000  1
  C  C550  1  0.34692000  0.67682000  0.16633000  1
  C  C551  1  0.84692000  0.17682000  0.66633000  1
  C  C552  1  0.51170000  0.58000000  0.32920000  1
  C  C553  1  0.01170000  0.08000000  0.82920000  1
  C  C554  1  0.51170000  0.08000000  0.32920000  1
  C  C555  1  0.01170000  0.58000000  0.82920000  1
  C  C556  1  0.28703000  0.11542000  0.10315000  1
  C  C557  1  0.78703000  0.61542000  0.60315000  1
  C  C558  1  0.28703000  0.61542000  0.10315000  1
  C  C559  1  0.78703000  0.11542000  0.60315000  1
  C  C560  1  0.51075000  0.64105000  0.32020000  1
  C  C561  1  0.01075000  0.14105000  0.82020000  1
  C  C562  1  0.51075000  0.14105000  0.32020000  1
  C  C563  1  0.01075000  0.64105000  0.82020000  1
  C  C564  1  0.46796000  0.69234000  0.27600000  1
  C  C565  1  0.96796000  0.19234000  0.77600000  1
  C  C566  1  0.46796000  0.19234000  0.27600000  1
  C  C567  1  0.96796000  0.69234000  0.77600000  1
  C  C568  1  0.41634000  0.69196000  0.22400000  1
  C  C569  1  0.91634000  0.19196000  0.72400000  1
  C  C570  1  0.41634000  0.19196000  0.22400000  1
  C  C571  1  0.91634000  0.69196000  0.72400000  1
  C  C572  1  0.39297000  0.20047000  0.19294000  1
  C  C573  1  0.89297000  0.70047000  0.69294000  1
  C  C574  1  0.39297000  0.70047000  0.19294000  1
  C  C575  1  0.89297000  0.20047000  0.69294000  1
  C  C576  1  0.50753000  0.70003000  0.30706000  1
  C  C577  1  0.00753000  0.20003000  0.80706000  1
  C  C578  1  0.50753000  0.20003000  0.30706000  1
  C  C579  1  0.00753000  0.70003000  0.80706000  1
  C  C580  1  0.32947000  0.13947000  0.12754000  1
  C  C581  1  0.82947000  0.63947000  0.62754000  1
  C  C582  1  0.32947000  0.63947000  0.12754000  1
  C  C583  1  0.82947000  0.13947000  0.62754000  1
  C  C584  1  0.26885000  0.07365000  0.06250000  1
  C  C585  1  0.76885000  0.57365000  0.56250000  1
  C  C586  1  0.26885000  0.57365000  0.06250000  1
  C  C587  1  0.76885000  0.07365000  0.56250000  1
  C  C588  1  0.31613000  0.48773000  0.10315000  1
  C  C589  1  0.81613000  0.98773000  0.60315000  1
  C  C590  1  0.31613000  0.98773000  0.10315000  1
  C  C591  1  0.81613000  0.48773000  0.60315000  1
  C  C592  1  0.37709000  0.48858000  0.15587000  1
  C  C593  1  0.87709000  0.98858000  0.65587000  1
  C  C594  1  0.37709000  0.98859000  0.15587000  1
  C  C595  1  0.87709000  0.48859000  0.65587000  1
  C  C596  1  0.41076000  0.22842000  0.18438000  1
  C  C597  1  0.91076000  0.72842000  0.68438000  1
  C  C598  1  0.41076000  0.72842000  0.18438000  1
  C  C599  1  0.91076000  0.22842000  0.68438000  1
  C  C600  1  0.54404000  0.72638000  0.31562000  1
  C  C601  1  0.04404000  0.22638000  0.81562000  1
  C  C602  1  0.54404000  0.22638000  0.31562000  1
  C  C603  1  0.04404000  0.72638000  0.81562000  1
  C  C604  1  0.29365000  0.48885000  0.06250000  1
  C  C605  1  0.79365000  0.98885000  0.56250000  1
  C  C606  1  0.29365000  0.98885000  0.06250000  1
  C  C607  1  0.79365000  0.48885000  0.56250000  1
  C  C608  1  0.38705000  0.23775000  0.15240000  1
  C  C609  1  0.88705000  0.73775000  0.65240000  1
  C  C610  1  0.38705000  0.73775000  0.15240000  1
  C  C611  1  0.88705000  0.23775000  0.65240000  1
  C  C612  1  0.58535000  0.73465000  0.34760000  1
  C  C613  1  0.08535000  0.23465000  0.84760000  1
  C  C614  1  0.58535000  0.23465000  0.34760000  1
  C  C615  1  0.08535000  0.73465000  0.84760000  1
  C  C616  1  0.35595000  0.48785000  0.11770000  1
  C  C617  1  0.85595000  0.98785000  0.61770000  1
  C  C618  1  0.35595000  0.98785000  0.11770000  1
  C  C619  1  0.85595000  0.48785000  0.61770000  1
  C  C620  1  0.42000000  0.48830000  0.17080000  1
  C  C621  1  0.92000000  0.98830000  0.67080000  1
  C  C622  1  0.42000000  0.98830000  0.17080000  1
  C  C623  1  0.92000000  0.48830000  0.67080000  1
  C  C624  1  0.58000000  0.51170000  0.32920000  1
  C  C625  1  0.08000000  0.01170000  0.82920000  1
  C  C626  1  0.58000000  0.01170000  0.32920000  1
  C  C627  1  0.08000000  0.51170000  0.82920000  1
  C  C628  1  0.64405000  0.51215000  0.38230000  1
  C  C629  1  0.14405000  0.01215000  0.88230000  1
  C  C630  1  0.64405000  0.01215000  0.38230000  1
  C  C631  1  0.14405000  0.51215000  0.88230000  1
  C  C632  1  0.41465000  0.26535000  0.15240000  1
  C  C633  1  0.91465000  0.76535000  0.65240000  1
  C  C634  1  0.41465000  0.76535000  0.15240000  1
  C  C635  1  0.91465000  0.26535000  0.65240000  1
  C  C636  1  0.61295000  0.76225000  0.34760000  1
  C  C637  1  0.11295000  0.26225000  0.84760000  1
  C  C638  1  0.61295000  0.26225000  0.34760000  1
  C  C639  1  0.11295000  0.76225000  0.84760000  1
  C  C640  1  0.70635000  0.51115000  0.43750000  1
  C  C641  1  0.20635000  0.01115000  0.93750000  1
  C  C642  1  0.70635000  0.01115000  0.43750000  1
  C  C643  1  0.20635000  0.51115000  0.93750000  1
  C  C644  1  0.45596000  0.27362000  0.18438000  1
  C  C645  1  0.95596000  0.77362000  0.68438000  1
  C  C646  1  0.45596000  0.77362000  0.18438000  1
  C  C647  1  0.95596000  0.27362000  0.68438000  1
  C  C648  1  0.58924000  0.77158000  0.31562000  1
  C  C649  1  0.08924000  0.27158000  0.81562000  1
  C  C650  1  0.58924000  0.27158000  0.31562000  1
  C  C651  1  0.08924000  0.77158000  0.81562000  1
  C  C652  1  0.62292000  0.51142000  0.34413000  1
  C  C653  1  0.12292000  0.01142000  0.84413000  1
  C  C654  1  0.62292000  0.01142000  0.34413000  1
  C  C655  1  0.12292000  0.51142000  0.84413000  1
  C  C656  1  0.68388000  0.51228000  0.39685000  1
  C  C657  1  0.18388000  0.01228000  0.89685000  1
  C  C658  1  0.68388000  0.01228000  0.39685000  1
  C  C659  1  0.18388000  0.51228000  0.89685000  1
  C  C660  1  0.73115000  0.92635000  0.43750000  1
  C  C661  1  0.23115000  0.42635000  0.93750000  1
  C  C662  1  0.73115000  0.42635000  0.43750000  1
  C  C663  1  0.23115000  0.92635000  0.93750000  1
  C  C664  1  0.67053000  0.86053000  0.37246000  1
  C  C665  1  0.17053000  0.36053000  0.87246000  1
  C  C666  1  0.67053000  0.36053000  0.37246000  1
  C  C667  1  0.17053000  0.86053000  0.87246000  1
  C  C668  1  0.49247000  0.29997000  0.19294000  1
  C  C669  1  0.99247000  0.79997000  0.69294000  1
  C  C670  1  0.49247000  0.79997000  0.19294000  1
  C  C671  1  0.99247000  0.29997000  0.69294000  1
  C  C672  1  0.60703000  0.79953000  0.30706000  1
  C  C673  1  0.10703000  0.29953000  0.80706000  1
  C  C674  1  0.60703000  0.29953000  0.30706000  1
  C  C675  1  0.10703000  0.79953000  0.80706000  1
  C  C676  1  0.58366000  0.30804000  0.27600000  1
  C  C677  1  0.08366000  0.80804000  0.77600000  1
  C  C678  1  0.58366000  0.80804000  0.27600000  1
  C  C679  1  0.08366000  0.30804000  0.77600000  1
  C  C680  1  0.53204000  0.30766000  0.22400000  1
  C  C681  1  0.03204000  0.80766000  0.72400000  1
  C  C682  1  0.53204000  0.80766000  0.22400000  1
  C  C683  1  0.03204000  0.30766000  0.72400000  1
  C  C684  1  0.48925000  0.35895000  0.17980000  1
  C  C685  1  0.98925000  0.85895000  0.67980000  1
  C  C686  1  0.48925000  0.85895000  0.17980000  1
  C  C687  1  0.98925000  0.35895000  0.67980000  1
  C  C688  1  0.71297000  0.88458000  0.39685000  1
  C  C689  1  0.21297000  0.38458000  0.89685000  1
  C  C690  1  0.71297000  0.38458000  0.39685000  1
  C  C691  1  0.21297000  0.88458000  0.89685000  1
  C  C692  1  0.48830000  0.42000000  0.17080000  1
  C  C693  1  0.98830000  0.92000000  0.67080000  1
  C  C694  1  0.48830000  0.92000000  0.17080000  1
  C  C695  1  0.98830000  0.42000000  0.67080000  1
  C  C696  1  0.65309000  0.82319000  0.33367000  1
  C  C697  1  0.15309000  0.32319000  0.83367000  1
  C  C698  1  0.65309000  0.32319000  0.33367000  1
  C  C699  1  0.15309000  0.82319000  0.83367000  1
  C  C700  1  0.64105000  0.51075000  0.32020000  1
  C  C701  1  0.14105000  0.01075000  0.82020000  1
  C  C702  1  0.64105000  0.01075000  0.32020000  1
  C  C703  1  0.14105000  0.51075000  0.82020000  1
  C  C704  1  0.48952000  0.31941000  0.16633000  1
  C  C705  1  0.98952000  0.81941000  0.66633000  1
  C  C706  1  0.48952000  0.81942000  0.16633000  1
  C  C707  1  0.98952000  0.31942000  0.66633000  1
  C  C708  1  0.70193000  0.51193000  0.37246000  1
  C  C709  1  0.20193000  0.01193000  0.87246000  1
  C  C710  1  0.70193000  0.01193000  0.37246000  1
  C  C711  1  0.20193000  0.51193000  0.87246000  1
  C  C712  1  0.48859000  0.37709000  0.15587000  1
  C  C713  1  0.98859000  0.87709000  0.65587000  1
  C  C714  1  0.48859000  0.87709000  0.15587000  1
  C  C715  1  0.98859000  0.37709000  0.65587000  1
  C  C716  1  0.60155000  0.33605000  0.26600000  1
  C  C717  1  0.10155000  0.83605000  0.76600000  1
  C  C718  1  0.60155000  0.83605000  0.26600000  1
  C  C719  1  0.10155000  0.33605000  0.76600000  1
  C  C720  1  0.57005000  0.33555000  0.23400000  1
  C  C721  1  0.07005000  0.83555000  0.73400000  1
  C  C722  1  0.57005000  0.83555000  0.23400000  1
  C  C723  1  0.07005000  0.33555000  0.73400000  1
  C  C724  1  0.68059000  0.51048000  0.33367000  1
  C  C725  1  0.18059000  0.01048000  0.83367000  1
  C  C726  1  0.68059000  0.01048000  0.33367000  1
  C  C727  1  0.18059000  0.51048000  0.83367000  1
  C  C728  1  0.73825000  0.87015000  0.38230000  1
  C  C729  1  0.23825000  0.37015000  0.88230000  1
  C  C730  1  0.73825000  0.37015000  0.38230000  1
  C  C731  1  0.23825000  0.87015000  0.88230000  1
  C  C732  1  0.67915000  0.80945000  0.32020000  1
  C  C733  1  0.17915000  0.30945000  0.82020000  1
  C  C734  1  0.67915000  0.30945000  0.32020000  1
  C  C735  1  0.17915000  0.80945000  0.82020000  1
  C  C736  1  0.48807000  0.29807000  0.12754000  1
  C  C737  1  0.98807000  0.79807000  0.62754000  1
  C  C738  1  0.48807000  0.79807000  0.12754000  1
  C  C739  1  0.98807000  0.29807000  0.62754000  1
  C  C740  1  0.48785000  0.35595000  0.11770000  1
  C  C741  1  0.98785000  0.85595000  0.61770000  1
  C  C742  1  0.48785000  0.85595000  0.11770000  1
  C  C743  1  0.98785000  0.35595000  0.61770000  1
  C  C744  1  0.72122000  0.83272000  0.34413000  1
  C  C745  1  0.22122000  0.33272000  0.84413000  1
  C  C746  1  0.72122000  0.33272000  0.34413000  1
  C  C747  1  0.22122000  0.83272000  0.84413000  1
  C  C748  1  0.48773000  0.31613000  0.10315000  1
  C  C749  1  0.98773000  0.81613000  0.60315000  1
  C  C750  1  0.48773000  0.81613000  0.10315000  1
  C  C751  1  0.98773000  0.31613000  0.60315000  1
  C  C752  1  0.73465000  0.58535000  0.34760000  1
  C  C753  1  0.23465000  0.08535000  0.84760000  1
  C  C754  1  0.73465000  0.08535000  0.34760000  1
  C  C755  1  0.23465000  0.58535000  0.84760000  1
  C  C756  1  0.70003000  0.50753000  0.30706000  1
  C  C757  1  0.20003000  0.00753000  0.80706000  1
  C  C758  1  0.70003000  0.00753000  0.30706000  1
  C  C759  1  0.20003000  0.50753000  0.80706000  1
  C  C760  1  0.66445000  0.42995000  0.26600000  1
  C  C761  1  0.16445000  0.92995000  0.76600000  1
  C  C762  1  0.66445000  0.92995000  0.26600000  1
  C  C763  1  0.16445000  0.42995000  0.76600000  1
  C  C764  1  0.72638000  0.54404000  0.31562000  1
  C  C765  1  0.22638000  0.04404000  0.81562000  1
  C  C766  1  0.72638000  0.04404000  0.31562000  1
  C  C767  1  0.22638000  0.54404000  0.81562000  1
  C  C768  1  0.76225000  0.61295000  0.34760000  1
  C  C769  1  0.26225000  0.11295000  0.84760000  1
  C  C770  1  0.76225000  0.11295000  0.34760000  1
  C  C771  1  0.26225000  0.61295000  0.84760000  1
  C  C772  1  0.69234000  0.46796000  0.27600000  1
  C  C773  1  0.19234000  0.96796000  0.77600000  1
  C  C774  1  0.69234000  0.96796000  0.27600000  1
  C  C775  1  0.19234000  0.46796000  0.77600000  1
  C  C776  1  0.74920000  0.81750000  0.32920000  1
  C  C777  1  0.24920000  0.31750000  0.82920000  1
  C  C778  1  0.74920000  0.31750000  0.32920000  1
  C  C779  1  0.24920000  0.81750000  0.82920000  1
  C  C780  1  0.48885000  0.29365000  0.06250000  1
  C  C781  1  0.98885000  0.79365000  0.56250000  1
  C  C782  1  0.48885000  0.79365000  0.06250000  1
  C  C783  1  0.98885000  0.29365000  0.56250000  1
  C  C784  1  0.66395000  0.39845000  0.23400000  1
  C  C785  1  0.16395000  0.89845000  0.73400000  1
  C  C786  1  0.66395000  0.89845000  0.23400000  1
  C  C787  1  0.16395000  0.39845000  0.73400000  1
  C  C788  1  0.77158000  0.58924000  0.31562000  1
  C  C789  1  0.27158000  0.08924000  0.81562000  1
  C  C790  1  0.77158000  0.08924000  0.31562000  1
  C  C791  1  0.27158000  0.58924000  0.81562000  1
  C  C792  1  0.69196000  0.41634000  0.22400000  1
  C  C793  1  0.19196000  0.91634000  0.72400000  1
  C  C794  1  0.69196000  0.91634000  0.22400000  1
  C  C795  1  0.19196000  0.41634000  0.72400000  1
  C  C796  1  0.88458000  0.71298000  0.39685000  1
  C  C797  1  0.38458000  0.21298000  0.89685000  1
  C  C798  1  0.88458000  0.21298000  0.39685000  1
  C  C799  1  0.38458000  0.71298000  0.89685000  1
  C  C800  1  0.87015000  0.73825000  0.38230000  1
  C  C801  1  0.37015000  0.23825000  0.88230000  1
  C  C802  1  0.87015000  0.23825000  0.38230000  1
  C  C803  1  0.37015000  0.73825000  0.88230000  1
  C  C804  1  0.86053000  0.67053000  0.37246000  1
  C  C805  1  0.36053000  0.17053000  0.87246000  1
  C  C806  1  0.86053000  0.17053000  0.37246000  1
  C  C807  1  0.36053000  0.67053000  0.87246000  1
  C  C808  1  0.81750000  0.74920000  0.32920000  1
  C  C809  1  0.31750000  0.24920000  0.82920000  1
  C  C810  1  0.81750000  0.24920000  0.32920000  1
  C  C811  1  0.31750000  0.74920000  0.82920000  1
  C  C812  1  0.83272000  0.72121000  0.34413000  1
  C  C813  1  0.33272000  0.22121000  0.84413000  1
  C  C814  1  0.83272000  0.22121000  0.34413000  1
  C  C815  1  0.33272000  0.72121000  0.84413000  1
  C  C816  1  0.92635000  0.73115000  0.43750000  1
  C  C817  1  0.42635000  0.23115000  0.93750000  1
  C  C818  1  0.92635000  0.23115000  0.43750000  1
  C  C819  1  0.42635000  0.73115000  0.93750000  1
  C  C820  1  0.80945000  0.67915000  0.32020000  1
  C  C821  1  0.30945000  0.17915000  0.82020000  1
  C  C822  1  0.80945000  0.17915000  0.32020000  1
  C  C823  1  0.30945000  0.67915000  0.82020000  1
  C  C824  1  0.82319000  0.65309000  0.33367000  1
  C  C825  1  0.32319000  0.15309000  0.83367000  1
  C  C826  1  0.82319000  0.15309000  0.33367000  1
  C  C827  1  0.32319000  0.65309000  0.83367000  1
  C  C828  1  0.79953000  0.60703000  0.30706000  1
  C  C829  1  0.29953000  0.10703000  0.80706000  1
  C  C830  1  0.79953000  0.10703000  0.30706000  1
  C  C831  1  0.29953000  0.60703000  0.80706000  1
  C  C832  1  0.70047000  0.39297000  0.19294000  1
  C  C833  1  0.20047000  0.89297000  0.69294000  1
  C  C834  1  0.70047000  0.89297000  0.19294000  1
  C  C835  1  0.20047000  0.39297000  0.69294000  1
  C  C836  1  0.67682000  0.34691000  0.16633000  1
  C  C837  1  0.17682000  0.84691000  0.66633000  1
  C  C838  1  0.67682000  0.84692000  0.16633000  1
  C  C839  1  0.17682000  0.34692000  0.66633000  1
  C  C840  1  0.69055000  0.32085000  0.17980000  1
  C  C841  1  0.19055000  0.82085000  0.67980000  1
  C  C842  1  0.69055000  0.82085000  0.17980000  1
  C  C843  1  0.19055000  0.32085000  0.67980000  1
  C  C844  1  0.57365000  0.26885000  0.06250000  1
  C  C845  1  0.07365000  0.76885000  0.56250000  1
  C  C846  1  0.57365000  0.76885000  0.06250000  1
  C  C847  1  0.07365000  0.26885000  0.56250000  1
  C  C848  1  0.66729000  0.27879000  0.15587000  1
  C  C849  1  0.16729000  0.77879000  0.65587000  1
  C  C850  1  0.66729000  0.77879000  0.15587000  1
  C  C851  1  0.16729000  0.27879000  0.65587000  1
  C  C852  1  0.68250000  0.25080000  0.17080000  1
  C  C853  1  0.18250000  0.75080000  0.67080000  1
  C  C854  1  0.68250000  0.75080000  0.17080000  1
  C  C855  1  0.18250000  0.25080000  0.67080000  1
  C  C856  1  0.63947000  0.32947000  0.12754000  1
  C  C857  1  0.13947000  0.82947000  0.62754000  1
  C  C858  1  0.63947000  0.82947000  0.12754000  1
  C  C859  1  0.13947000  0.32947000  0.62754000  1
  C  C860  1  0.62985000  0.26175000  0.11770000  1
  C  C861  1  0.12985000  0.76175000  0.61770000  1
  C  C862  1  0.62985000  0.76175000  0.11770000  1
  C  C863  1  0.12985000  0.26175000  0.61770000  1
  C  C864  1  0.61543000  0.28703000  0.10315000  1
  C  C865  1  0.11543000  0.78703000  0.60315000  1
  C  C866  1  0.61543000  0.78703000  0.10315000  1
  C  C867  1  0.11543000  0.28703000  0.60315000  1
  C  C868  1  0.80804000  0.58366000  0.27600000  1
  C  C869  1  0.30804000  0.08366000  0.77600000  1
  C  C870  1  0.80804000  0.08366000  0.27600000  1
  C  C871  1  0.30804000  0.58366000  0.77600000  1
  C  C872  1  0.72842000  0.41076000  0.18438000  1
  C  C873  1  0.22842000  0.91076000  0.68438000  1
  C  C874  1  0.72842000  0.91076000  0.18438000  1
  C  C875  1  0.22842000  0.41076000  0.68438000  1
  C  C876  1  0.83605000  0.60155000  0.26600000  1
  C  C877  1  0.33605000  0.10155000  0.76600000  1
  C  C878  1  0.83605000  0.10155000  0.26600000  1
  C  C879  1  0.33605000  0.60155000  0.76600000  1
  C  C880  1  0.01115000  0.70635000  0.43750000  1
  C  C881  1  0.51115000  0.20635000  0.93750000  1
  C  C882  1  0.01115000  0.20635000  0.43750000  1
  C  C883  1  0.51115000  0.70635000  0.93750000  1
  C  C884  1  0.75080000  0.18250000  0.17080000  1
  C  C885  1  0.25080000  0.68250000  0.67080000  1
  C  C886  1  0.75080000  0.68250000  0.17080000  1
  C  C887  1  0.25080000  0.18250000  0.67080000  1
  C  C888  1  0.80766000  0.53204000  0.22400000  1
  C  C889  1  0.30766000  0.03204000  0.72400000  1
  C  C890  1  0.80766000  0.03204000  0.22400000  1
  C  C891  1  0.30766000  0.53204000  0.72400000  1
  C  C892  1  0.73775000  0.38705000  0.15240000  1
  C  C893  1  0.23775000  0.88705000  0.65240000  1
  C  C894  1  0.73775000  0.88705000  0.15240000  1
  C  C895  1  0.23775000  0.38705000  0.65240000  1
  C  C896  1  0.77362000  0.45596000  0.18438000  1
  C  C897  1  0.27362000  0.95596000  0.68438000  1
  C  C898  1  0.77362000  0.95596000  0.18438000  1
  C  C899  1  0.27362000  0.45596000  0.68438000  1
  C  C900  1  0.83555000  0.57005000  0.23400000  1
  C  C901  1  0.33555000  0.07005000  0.73400000  1
  C  C902  1  0.83555000  0.07005000  0.23400000  1
  C  C903  1  0.33555000  0.57005000  0.73400000  1
  C  C904  1  0.79997000  0.49247000  0.19294000  1
  C  C905  1  0.29997000  0.99247000  0.69294000  1
  C  C906  1  0.79997000  0.99247000  0.19294000  1
  C  C907  1  0.29997000  0.49247000  0.69294000  1
  C  C908  1  0.76535000  0.41465000  0.15240000  1
  C  C909  1  0.26535000  0.91465000  0.65240000  1
  C  C910  1  0.76535000  0.91465000  0.15240000  1
  C  C911  1  0.26535000  0.41465000  0.65240000  1
  C  C912  1  0.01228000  0.68388000  0.39685000  1
  C  C913  1  0.51228000  0.18388000  0.89685000  1
  C  C914  1  0.01228000  0.18388000  0.39685000  1
  C  C915  1  0.51228000  0.68388000  0.89685000  1
  C  C916  1  0.77879000  0.16728000  0.15587000  1
  C  C917  1  0.27879000  0.66728000  0.65587000  1
  C  C918  1  0.77879000  0.66728000  0.15587000  1
  C  C919  1  0.27879000  0.16728000  0.65587000  1
  C  C920  1  0.01215000  0.64405000  0.38230000  1
  C  C921  1  0.51215000  0.14405000  0.88230000  1
  C  C922  1  0.01215000  0.14405000  0.38230000  1
  C  C923  1  0.51215000  0.64405000  0.88230000  1
  C  C924  1  0.01193000  0.70193000  0.37246000  1
  C  C925  1  0.51193000  0.20193000  0.87246000  1
  C  C926  1  0.01193000  0.20193000  0.37246000  1
  C  C927  1  0.51193000  0.70193000  0.87246000  1
  C  C928  1  0.82085000  0.19055000  0.17980000  1
  C  C929  1  0.32085000  0.69055000  0.67980000  1
  C  C930  1  0.82085000  0.69055000  0.17980000  1
  C  C931  1  0.32085000  0.19055000  0.67980000  1
  C  C932  1  0.76175000  0.12985000  0.11770000  1
  C  C933  1  0.26175000  0.62985000  0.61770000  1
  C  C934  1  0.76175000  0.62985000  0.11770000  1
  C  C935  1  0.26175000  0.12985000  0.61770000  1
  C  C936  1  0.81942000  0.48952000  0.16633000  1
  C  C937  1  0.31942000  0.98952000  0.66633000  1
  C  C938  1  0.81942000  0.98952000  0.16633000  1
  C  C939  1  0.31942000  0.48952000  0.66633000  1
  C  C940  1  0.92995000  0.66445000  0.26600000  1
  C  C941  1  0.42995000  0.16445000  0.76600000  1
  C  C942  1  0.92995000  0.16445000  0.26600000  1
  C  C943  1  0.42995000  0.66445000  0.76600000  1
  C  C944  1  0.89845000  0.66395000  0.23400000  1
  C  C945  1  0.39845000  0.16395000  0.73400000  1
  C  C946  1  0.89845000  0.16395000  0.23400000  1
  C  C947  1  0.39845000  0.66395000  0.73400000  1
  C  C948  1  0.01142000  0.62292000  0.34413000  1
  C  C949  1  0.51142000  0.12292000  0.84413000  1
  C  C950  1  0.01142000  0.12292000  0.34413000  1
  C  C951  1  0.51142000  0.62292000  0.84413000  1
  C  C952  1  0.79807000  0.48807000  0.12754000  1
  C  C953  1  0.29807000  0.98807000  0.62754000  1
  C  C954  1  0.79807000  0.98807000  0.12754000  1
  C  C955  1  0.29807000  0.48807000  0.62754000  1
  C  C956  1  0.01049000  0.68059000  0.33367000  1
  C  C957  1  0.51049000  0.18059000  0.83367000  1
  C  C958  1  0.01049000  0.18059000  0.33367000  1
  C  C959  1  0.51049000  0.68059000  0.83367000  1
  C  C960  1  0.85895000  0.48925000  0.17980000  1
  C  C961  1  0.35895000  0.98925000  0.67980000  1
  C  C962  1  0.85895000  0.98925000  0.17980000  1
  C  C963  1  0.35895000  0.48925000  0.67980000  1
  C  C964  1  0.84692000  0.17682000  0.16633000  1
  C  C965  1  0.34692000  0.67682000  0.66633000  1
  C  C966  1  0.84692000  0.67682000  0.16633000  1
  C  C967  1  0.34692000  0.17682000  0.66633000  1
  C  C968  1  0.01170000  0.58000000  0.32920000  1
  C  C969  1  0.51170000  0.08000000  0.82920000  1
  C  C970  1  0.01170000  0.08000000  0.32920000  1
  C  C971  1  0.51170000  0.58000000  0.82920000  1
  C  C972  1  0.78703000  0.11542000  0.10315000  1
  C  C973  1  0.28703000  0.61542000  0.60315000  1
  C  C974  1  0.78703000  0.61542000  0.10315000  1
  C  C975  1  0.28703000  0.11542000  0.60315000  1
  C  C976  1  0.01075000  0.64105000  0.32020000  1
  C  C977  1  0.51075000  0.14105000  0.82020000  1
  C  C978  1  0.01075000  0.14105000  0.32020000  1
  C  C979  1  0.51075000  0.64105000  0.82020000  1
  C  C980  1  0.96796000  0.69234000  0.27600000  1
  C  C981  1  0.46796000  0.19234000  0.77600000  1
  C  C982  1  0.96796000  0.19234000  0.27600000  1
  C  C983  1  0.46796000  0.69234000  0.77600000  1
  C  C984  1  0.91634000  0.69196000  0.22400000  1
  C  C985  1  0.41634000  0.19196000  0.72400000  1
  C  C986  1  0.91634000  0.19196000  0.22400000  1
  C  C987  1  0.41634000  0.69196000  0.72400000  1
  C  C988  1  0.89297000  0.20047000  0.19294000  1
  C  C989  1  0.39297000  0.70047000  0.69294000  1
  C  C990  1  0.89297000  0.70047000  0.19294000  1
  C  C991  1  0.39297000  0.20047000  0.69294000  1
  C  C992  1  0.00753000  0.70003000  0.30706000  1
  C  C993  1  0.50753000  0.20003000  0.80706000  1
  C  C994  1  0.00753000  0.20003000  0.30706000  1
  C  C995  1  0.50753000  0.70003000  0.80706000  1
  C  C996  1  0.82947000  0.13947000  0.12754000  1
  C  C997  1  0.32947000  0.63947000  0.62754000  1
  C  C998  1  0.82947000  0.63947000  0.12754000  1
  C  C999  1  0.32947000  0.13947000  0.62754000  1
  C  C1000  1  0.76885000  0.07365000  0.06250000  1
  C  C1001  1  0.26885000  0.57365000  0.56250000  1
  C  C1002  1  0.76885000  0.57365000  0.06250000  1
  C  C1003  1  0.26885000  0.07365000  0.56250000  1
  C  C1004  1  0.81613000  0.48773000  0.10315000  1
  C  C1005  1  0.31613000  0.98773000  0.60315000  1
  C  C1006  1  0.81613000  0.98773000  0.10315000  1
  C  C1007  1  0.31613000  0.48773000  0.60315000  1
  C  C1008  1  0.87709000  0.48858000  0.15587000  1
  C  C1009  1  0.37709000  0.98858000  0.65587000  1
  C  C1010  1  0.87709000  0.98859000  0.15587000  1
  C  C1011  1  0.37709000  0.48859000  0.65587000  1
  C  C1012  1  0.91076000  0.22842000  0.18438000  1
  C  C1013  1  0.41076000  0.72842000  0.68438000  1
  C  C1014  1  0.91076000  0.72842000  0.18438000  1
  C  C1015  1  0.41076000  0.22842000  0.68438000  1
  C  C1016  1  0.04404000  0.72638000  0.31562000  1
  C  C1017  1  0.54404000  0.22638000  0.81562000  1
  C  C1018  1  0.04404000  0.22638000  0.31562000  1
  C  C1019  1  0.54404000  0.72638000  0.81562000  1
  C  C1020  1  0.79365000  0.48885000  0.06250000  1
  C  C1021  1  0.29365000  0.98885000  0.56250000  1
  C  C1022  1  0.79365000  0.98885000  0.06250000  1
  C  C1023  1  0.29365000  0.48885000  0.56250000  1
  C  C1024  1  0.88705000  0.23775000  0.15240000  1
  C  C1025  1  0.38705000  0.73775000  0.65240000  1
  C  C1026  1  0.88705000  0.73775000  0.15240000  1
  C  C1027  1  0.38705000  0.23775000  0.65240000  1
  C  C1028  1  0.08535000  0.73465000  0.34760000  1
  C  C1029  1  0.58535000  0.23465000  0.84760000  1
  C  C1030  1  0.08535000  0.23465000  0.34760000  1
  C  C1031  1  0.58535000  0.73465000  0.84760000  1
  C  C1032  1  0.85595000  0.48785000  0.11770000  1
  C  C1033  1  0.35595000  0.98785000  0.61770000  1
  C  C1034  1  0.85595000  0.98785000  0.11770000  1
  C  C1035  1  0.35595000  0.48785000  0.61770000  1
  C  C1036  1  0.92000000  0.48830000  0.17080000  1
  C  C1037  1  0.42000000  0.98830000  0.67080000  1
  C  C1038  1  0.92000000  0.98830000  0.17080000  1
  C  C1039  1  0.42000000  0.48830000  0.67080000  1
  C  C1040  1  0.08000000  0.51170000  0.32920000  1
  C  C1041  1  0.58000000  0.01170000  0.82920000  1
  C  C1042  1  0.08000000  0.01170000  0.32920000  1
  C  C1043  1  0.58000000  0.51170000  0.82920000  1
  C  C1044  1  0.14405000  0.51215000  0.38230000  1
  C  C1045  1  0.64405000  0.01215000  0.88230000  1
  C  C1046  1  0.14405000  0.01215000  0.38230000  1
  C  C1047  1  0.64405000  0.51215000  0.88230000  1
  C  C1048  1  0.91465000  0.26535000  0.15240000  1
  C  C1049  1  0.41465000  0.76535000  0.65240000  1
  C  C1050  1  0.91465000  0.76535000  0.15240000  1
  C  C1051  1  0.41465000  0.26535000  0.65240000  1
  C  C1052  1  0.11295000  0.76225000  0.34760000  1
  C  C1053  1  0.61295000  0.26225000  0.84760000  1
  C  C1054  1  0.11295000  0.26225000  0.34760000  1
  C  C1055  1  0.61295000  0.76225000  0.84760000  1
  C  C1056  1  0.20635000  0.51115000  0.43750000  1
  C  C1057  1  0.70635000  0.01115000  0.93750000  1
  C  C1058  1  0.20635000  0.01115000  0.43750000  1
  C  C1059  1  0.70635000  0.51115000  0.93750000  1
  C  C1060  1  0.95596000  0.27362000  0.18438000  1
  C  C1061  1  0.45596000  0.77362000  0.68438000  1
  C  C1062  1  0.95596000  0.77362000  0.18438000  1
  C  C1063  1  0.45596000  0.27362000  0.68438000  1
  C  C1064  1  0.08924000  0.77158000  0.31562000  1
  C  C1065  1  0.58924000  0.27158000  0.81562000  1
  C  C1066  1  0.08924000  0.27158000  0.31562000  1
  C  C1067  1  0.58924000  0.77158000  0.81562000  1
  C  C1068  1  0.12292000  0.51142000  0.34413000  1
  C  C1069  1  0.62292000  0.01142000  0.84413000  1
  C  C1070  1  0.12292000  0.01142000  0.34413000  1
  C  C1071  1  0.62292000  0.51142000  0.84413000  1
  C  C1072  1  0.18388000  0.51228000  0.39685000  1
  C  C1073  1  0.68388000  0.01228000  0.89685000  1
  C  C1074  1  0.18388000  0.01228000  0.39685000  1
  C  C1075  1  0.68388000  0.51228000  0.89685000  1
  C  C1076  1  0.23115000  0.92635000  0.43750000  1
  C  C1077  1  0.73115000  0.42635000  0.93750000  1
  C  C1078  1  0.23115000  0.42635000  0.43750000  1
  C  C1079  1  0.73115000  0.92635000  0.93750000  1
  C  C1080  1  0.17053000  0.86053000  0.37246000  1
  C  C1081  1  0.67053000  0.36053000  0.87246000  1
  C  C1082  1  0.17053000  0.36053000  0.37246000  1
  C  C1083  1  0.67053000  0.86053000  0.87246000  1
  C  C1084  1  0.99247000  0.29997000  0.19294000  1
  C  C1085  1  0.49247000  0.79997000  0.69294000  1
  C  C1086  1  0.99247000  0.79997000  0.19294000  1
  C  C1087  1  0.49247000  0.29997000  0.69294000  1
  C  C1088  1  0.10703000  0.79953000  0.30706000  1
  C  C1089  1  0.60703000  0.29953000  0.80706000  1
  C  C1090  1  0.10703000  0.29953000  0.30706000  1
  C  C1091  1  0.60703000  0.79953000  0.80706000  1
  C  C1092  1  0.08366000  0.30804000  0.27600000  1
  C  C1093  1  0.58366000  0.80804000  0.77600000  1
  C  C1094  1  0.08366000  0.80804000  0.27600000  1
  C  C1095  1  0.58366000  0.30804000  0.77600000  1
  C  C1096  1  0.03204000  0.30766000  0.22400000  1
  C  C1097  1  0.53204000  0.80766000  0.72400000  1
  C  C1098  1  0.03204000  0.80766000  0.22400000  1
  C  C1099  1  0.53204000  0.30766000  0.72400000  1
  C  C1100  1  0.98925000  0.35895000  0.17980000  1
  C  C1101  1  0.48925000  0.85895000  0.67980000  1
  C  C1102  1  0.98925000  0.85895000  0.17980000  1
  C  C1103  1  0.48925000  0.35895000  0.67980000  1
  C  C1104  1  0.21298000  0.88458000  0.39685000  1
  C  C1105  1  0.71298000  0.38458000  0.89685000  1
  C  C1106  1  0.21298000  0.38458000  0.39685000  1
  C  C1107  1  0.71298000  0.88458000  0.89685000  1
  C  C1108  1  0.98830000  0.42000000  0.17080000  1
  C  C1109  1  0.48830000  0.92000000  0.67080000  1
  C  C1110  1  0.98830000  0.92000000  0.17080000  1
  C  C1111  1  0.48830000  0.42000000  0.67080000  1
  C  C1112  1  0.15309000  0.82319000  0.33367000  1
  C  C1113  1  0.65309000  0.32319000  0.83367000  1
  C  C1114  1  0.15309000  0.32319000  0.33367000  1
  C  C1115  1  0.65309000  0.82319000  0.83367000  1
  C  C1116  1  0.14105000  0.51075000  0.32020000  1
  C  C1117  1  0.64105000  0.01075000  0.82020000  1
  C  C1118  1  0.14105000  0.01075000  0.32020000  1
  C  C1119  1  0.64105000  0.51075000  0.82020000  1
  C  C1120  1  0.98952000  0.31941000  0.16633000  1
  C  C1121  1  0.48952000  0.81941000  0.66633000  1
  C  C1122  1  0.98952000  0.81941000  0.16633000  1
  C  C1123  1  0.48952000  0.31941000  0.66633000  1
  C  C1124  1  0.20193000  0.51193000  0.37246000  1
  C  C1125  1  0.70193000  0.01193000  0.87246000  1
  C  C1126  1  0.20193000  0.01193000  0.37246000  1
  C  C1127  1  0.70193000  0.51193000  0.87246000  1
  C  C1128  1  0.98859000  0.37709000  0.15587000  1
  C  C1129  1  0.48859000  0.87709000  0.65587000  1
  C  C1130  1  0.98859000  0.87709000  0.15587000  1
  C  C1131  1  0.48859000  0.37709000  0.65587000  1
  C  C1132  1  0.10155000  0.33605000  0.26600000  1
  C  C1133  1  0.60155000  0.83605000  0.76600000  1
  C  C1134  1  0.10155000  0.83605000  0.26600000  1
  C  C1135  1  0.60155000  0.33605000  0.76600000  1
  C  C1136  1  0.07005000  0.33555000  0.23400000  1
  C  C1137  1  0.57005000  0.83555000  0.73400000  1
  C  C1138  1  0.07005000  0.83555000  0.23400000  1
  C  C1139  1  0.57005000  0.33555000  0.73400000  1
  C  C1140  1  0.18059000  0.51048000  0.33367000  1
  C  C1141  1  0.68059000  0.01048000  0.83367000  1
  C  C1142  1  0.18059000  0.01048000  0.33367000  1
  C  C1143  1  0.68059000  0.51048000  0.83367000  1
  C  C1144  1  0.23825000  0.87015000  0.38230000  1
  C  C1145  1  0.73825000  0.37015000  0.88230000  1
  C  C1146  1  0.23825000  0.37015000  0.38230000  1
  C  C1147  1  0.73825000  0.87015000  0.88230000  1
  C  C1148  1  0.17915000  0.80945000  0.32020000  1
  C  C1149  1  0.67915000  0.30945000  0.82020000  1
  C  C1150  1  0.17915000  0.30945000  0.32020000  1
  C  C1151  1  0.67915000  0.80945000  0.82020000  1
  C  C1152  1  0.98807000  0.29807000  0.12754000  1
  C  C1153  1  0.48807000  0.79807000  0.62754000  1
  C  C1154  1  0.98807000  0.79807000  0.12754000  1
  C  C1155  1  0.48807000  0.29807000  0.62754000  1
  C  C1156  1  0.98785000  0.35595000  0.11770000  1
  C  C1157  1  0.48785000  0.85595000  0.61770000  1
  C  C1158  1  0.98785000  0.85595000  0.11770000  1
  C  C1159  1  0.48785000  0.35595000  0.61770000  1
  C  C1160  1  0.22122000  0.83272000  0.34413000  1
  C  C1161  1  0.72122000  0.33272000  0.84413000  1
  C  C1162  1  0.22122000  0.33272000  0.34413000  1
  C  C1163  1  0.72122000  0.83272000  0.84413000  1
  C  C1164  1  0.98773000  0.31613000  0.10315000  1
  C  C1165  1  0.48773000  0.81613000  0.60315000  1
  C  C1166  1  0.98773000  0.81613000  0.10315000  1
  C  C1167  1  0.48773000  0.31613000  0.60315000  1
  C  C1168  1  0.23465000  0.58535000  0.34760000  1
  C  C1169  1  0.73465000  0.08535000  0.84760000  1
  C  C1170  1  0.23465000  0.08535000  0.34760000  1
  C  C1171  1  0.73465000  0.58535000  0.84760000  1
  C  C1172  1  0.20003000  0.50753000  0.30706000  1
  C  C1173  1  0.70003000  0.00753000  0.80706000  1
  C  C1174  1  0.20003000  0.00753000  0.30706000  1
  C  C1175  1  0.70003000  0.50753000  0.80706000  1
  C  C1176  1  0.16445000  0.42995000  0.26600000  1
  C  C1177  1  0.66445000  0.92995000  0.76600000  1
  C  C1178  1  0.16445000  0.92995000  0.26600000  1
  C  C1179  1  0.66445000  0.42995000  0.76600000  1
  C  C1180  1  0.22638000  0.54404000  0.31562000  1
  C  C1181  1  0.72638000  0.04404000  0.81562000  1
  C  C1182  1  0.22638000  0.04404000  0.31562000  1
  C  C1183  1  0.72638000  0.54404000  0.81562000  1
  C  C1184  1  0.26225000  0.61295000  0.34760000  1
  C  C1185  1  0.76225000  0.11295000  0.84760000  1
  C  C1186  1  0.26225000  0.11295000  0.34760000  1
  C  C1187  1  0.76225000  0.61295000  0.84760000  1
  C  C1188  1  0.19234000  0.46796000  0.27600000  1
  C  C1189  1  0.69234000  0.96796000  0.77600000  1
  C  C1190  1  0.19234000  0.96796000  0.27600000  1
  C  C1191  1  0.69234000  0.46796000  0.77600000  1
  C  C1192  1  0.24920000  0.81750000  0.32920000  1
  C  C1193  1  0.74920000  0.31750000  0.82920000  1
  C  C1194  1  0.24920000  0.31750000  0.32920000  1
  C  C1195  1  0.74920000  0.81750000  0.82920000  1
  C  C1196  1  0.98885000  0.29365000  0.06250000  1
  C  C1197  1  0.48885000  0.79365000  0.56250000  1
  C  C1198  1  0.98885000  0.79365000  0.06250000  1
  C  C1199  1  0.48885000  0.29365000  0.56250000  1
  C  C1200  1  0.16395000  0.39845000  0.23400000  1
  C  C1201  1  0.66395000  0.89845000  0.73400000  1
  C  C1202  1  0.16395000  0.89845000  0.23400000  1
  C  C1203  1  0.66395000  0.39845000  0.73400000  1
  C  C1204  1  0.27158000  0.58924000  0.31562000  1
  C  C1205  1  0.77158000  0.08924000  0.81562000  1
  C  C1206  1  0.27158000  0.08924000  0.31562000  1
  C  C1207  1  0.77158000  0.58924000  0.81562000  1
  C  C1208  1  0.19196000  0.41634000  0.22400000  1
  C  C1209  1  0.69196000  0.91634000  0.72400000  1
  C  C1210  1  0.19196000  0.91634000  0.22400000  1
  C  C1211  1  0.69196000  0.41634000  0.72400000  1
  C  C1212  1  0.38458000  0.71298000  0.39685000  1
  C  C1213  1  0.88458000  0.21298000  0.89685000  1
  C  C1214  1  0.38458000  0.21298000  0.39685000  1
  C  C1215  1  0.88458000  0.71298000  0.89685000  1
  C  C1216  1  0.37015000  0.73825000  0.38230000  1
  C  C1217  1  0.87015000  0.23825000  0.88230000  1
  C  C1218  1  0.37015000  0.23825000  0.38230000  1
  C  C1219  1  0.87015000  0.73825000  0.88230000  1
  C  C1220  1  0.36053000  0.67053000  0.37246000  1
  C  C1221  1  0.86053000  0.17053000  0.87246000  1
  C  C1222  1  0.36053000  0.17053000  0.37246000  1
  C  C1223  1  0.86053000  0.67053000  0.87246000  1
  C  C1224  1  0.31750000  0.74920000  0.32920000  1
  C  C1225  1  0.81750000  0.24920000  0.82920000  1
  C  C1226  1  0.31750000  0.24920000  0.32920000  1
  C  C1227  1  0.81750000  0.74920000  0.82920000  1
  C  C1228  1  0.33272000  0.72121000  0.34413000  1
  C  C1229  1  0.83272000  0.22121000  0.84413000  1
  C  C1230  1  0.33272000  0.22121000  0.34413000  1
  C  C1231  1  0.83272000  0.72121000  0.84413000  1
  C  C1232  1  0.42635000  0.73115000  0.43750000  1
  C  C1233  1  0.92635000  0.23115000  0.93750000  1
  C  C1234  1  0.42635000  0.23115000  0.43750000  1
  C  C1235  1  0.92635000  0.73115000  0.93750000  1
  C  C1236  1  0.30945000  0.67915000  0.32020000  1
  C  C1237  1  0.80945000  0.17915000  0.82020000  1
  C  C1238  1  0.30945000  0.17915000  0.32020000  1
  C  C1239  1  0.80945000  0.67915000  0.82020000  1
  C  C1240  1  0.32319000  0.65309000  0.33367000  1
  C  C1241  1  0.82319000  0.15309000  0.83367000  1
  C  C1242  1  0.32319000  0.15309000  0.33367000  1
  C  C1243  1  0.82319000  0.65309000  0.83367000  1
  C  C1244  1  0.29953000  0.60703000  0.30706000  1
  C  C1245  1  0.79953000  0.10703000  0.80706000  1
  C  C1246  1  0.29953000  0.10703000  0.30706000  1
  C  C1247  1  0.79953000  0.60703000  0.80706000  1
  N  N1248  1  0.29120000  0.54120000  0.25000000  1
  N  N1249  1  0.79120000  0.04120000  0.75000000  1
  N  N1250  1  0.29120000  0.04120000  0.25000000  1
  N  N1251  1  0.79120000  0.54120000  0.75000000  1
  N  N1252  1  0.25082000  0.45262000  0.20344000  1
  N  N1253  1  0.75082000  0.95262000  0.70344000  1
  N  N1254  1  0.25082000  0.95262000  0.20344000  1
  N  N1255  1  0.75082000  0.45262000  0.70344000  1
  N  N1256  1  0.45880000  0.70880000  0.25000000  1
  N  N1257  1  0.95880000  0.20880000  0.75000000  1
  N  N1258  1  0.45880000  0.20880000  0.25000000  1
  N  N1259  1  0.95880000  0.70880000  0.75000000  1
  N  N1260  1  0.45262000  0.25082000  0.20344000  1
  N  N1261  1  0.95262000  0.75082000  0.70344000  1
  N  N1262  1  0.45262000  0.75082000  0.20344000  1
  N  N1263  1  0.95262000  0.25082000  0.70344000  1
  N  N1264  1  0.54738000  0.74918000  0.29656000  1
  N  N1265  1  0.04738000  0.24918000  0.79656000  1
  N  N1266  1  0.54738000  0.24918000  0.29656000  1
  N  N1267  1  0.04738000  0.74918000  0.79656000  1
  N  N1268  1  0.54120000  0.29120000  0.25000000  1
  N  N1269  1  0.04120000  0.79120000  0.75000000  1
  N  N1270  1  0.54120000  0.79120000  0.25000000  1
  N  N1271  1  0.04120000  0.29120000  0.75000000  1
  N  N1272  1  0.74918000  0.54738000  0.29656000  1
  N  N1273  1  0.24918000  0.04738000  0.79656000  1
  N  N1274  1  0.74918000  0.04738000  0.29656000  1
  N  N1275  1  0.24918000  0.54738000  0.79656000  1
  N  N1276  1  0.70880000  0.45880000  0.25000000  1
  N  N1277  1  0.20880000  0.95880000  0.75000000  1
  N  N1278  1  0.70880000  0.95880000  0.25000000  1
  N  N1279  1  0.20880000  0.45880000  0.75000000  1
  N  N1280  1  0.79120000  0.54120000  0.25000000  1
  N  N1281  1  0.29120000  0.04120000  0.75000000  1
  N  N1282  1  0.79120000  0.04120000  0.25000000  1
  N  N1283  1  0.29120000  0.54120000  0.75000000  1
  N  N1284  1  0.75082000  0.45262000  0.20344000  1
  N  N1285  1  0.25082000  0.95262000  0.70344000  1
  N  N1286  1  0.75082000  0.95262000  0.20344000  1
  N  N1287  1  0.25082000  0.45262000  0.70344000  1
  N  N1288  1  0.95880000  0.70880000  0.25000000  1
  N  N1289  1  0.45880000  0.20880000  0.75000000  1
  N  N1290  1  0.95880000  0.20880000  0.25000000  1
  N  N1291  1  0.45880000  0.70880000  0.75000000  1
  N  N1292  1  0.95262000  0.25082000  0.20344000  1
  N  N1293  1  0.45262000  0.75082000  0.70344000  1
  N  N1294  1  0.95262000  0.75082000  0.20344000  1
  N  N1295  1  0.45262000  0.25082000  0.70344000  1
  N  N1296  1  0.04738000  0.74918000  0.29656000  1
  N  N1297  1  0.54738000  0.24918000  0.79656000  1
  N  N1298  1  0.04738000  0.24918000  0.29656000  1
  N  N1299  1  0.54738000  0.74918000  0.79656000  1
  N  N1300  1  0.04120000  0.29120000  0.25000000  1
  N  N1301  1  0.54120000  0.79120000  0.75000000  1
  N  N1302  1  0.04120000  0.79120000  0.25000000  1
  N  N1303  1  0.54120000  0.29120000  0.75000000  1
  N  N1304  1  0.24918000  0.54738000  0.29656000  1
  N  N1305  1  0.74918000  0.04738000  0.79656000  1
  N  N1306  1  0.24918000  0.04738000  0.29656000  1
  N  N1307  1  0.74918000  0.54738000  0.79656000  1
  N  N1308  1  0.20880000  0.45880000  0.25000000  1
  N  N1309  1  0.70880000  0.95880000  0.75000000  1
  N  N1310  1  0.20880000  0.95880000  0.25000000  1
  N  N1311  1  0.70880000  0.45880000  0.75000000  1
  Cl  Cl1312  1  0.30781000  0.49842000  0.30623000  1
  Cl  Cl1313  1  0.30781000  0.99842000  0.30623000  1
  Cl  Cl1314  1  0.04150000  0.35295000  0.00000000  1
  Cl  Cl1315  1  0.54150000  0.85295000  0.50000000  1
  Cl  Cl1316  1  0.04150000  0.85295000  1.00000000  1
  Cl  Cl1317  1  0.54150000  0.35295000  0.50000000  1
  Cl  Cl1318  1  0.14705000  0.45850000  1.00000000  1
  Cl  Cl1319  1  0.64705000  0.95850000  0.50000000  1
  Cl  Cl1320  1  0.14705000  0.95850000  1.00000000  1
  Cl  Cl1321  1  0.64705000  0.45850000  0.50000000  1
  Cl  Cl1322  1  0.49842000  0.30781000  0.30623000  1
  Cl  Cl1323  1  0.99842000  0.30781000  0.80623000  1
  Cl  Cl1324  1  0.50159000  0.69219000  0.19377000  1
  Cl  Cl1325  1  0.00159000  0.69219000  0.69377000  1
  Cl  Cl1326  1  0.35295000  0.04150000  0.00000000  1
  Cl  Cl1327  1  0.85295000  0.54150000  0.50000000  1
  Cl  Cl1328  1  0.35295000  0.54150000  0.00000000  1
  Cl  Cl1329  1  0.85295000  0.04150000  0.50000000  1
  Cl  Cl1330  1  0.45850000  0.14705000  1.00000000  1
  Cl  Cl1331  1  0.95850000  0.64705000  0.50000000  1
  Cl  Cl1332  1  0.45850000  0.64705000  1.00000000  1
  Cl  Cl1333  1  0.95850000  0.14705000  0.50000000  1
  Cl  Cl1334  1  0.69219000  0.50159000  0.19377000  1
  Cl  Cl1335  1  0.69219000  0.00159000  0.19377000  1
  Cl  Cl1336  1  0.30781000  0.99842000  0.80623000  1
  Cl  Cl1337  1  0.30781000  0.49842000  0.80623000  1
  Cl  Cl1338  1  0.54150000  0.35295000  0.00000000  1
  Cl  Cl1339  1  0.04150000  0.85295000  0.50000000  1
  Cl  Cl1340  1  0.54150000  0.85295000  1.00000000  1
  Cl  Cl1341  1  0.04150000  0.35295000  0.50000000  1
  Cl  Cl1342  1  0.64705000  0.45850000  1.00000000  1
  Cl  Cl1343  1  0.14705000  0.95850000  0.50000000  1
  Cl  Cl1344  1  0.64705000  0.95850000  1.00000000  1
  Cl  Cl1345  1  0.14705000  0.45850000  0.50000000  1
  Cl  Cl1346  1  0.99842000  0.30781000  0.30623000  1
  Cl  Cl1347  1  0.00159000  0.69219000  0.19377000  1
  Cl  Cl1348  1  0.50159000  0.19219000  0.69377000  1
  Cl  Cl1349  1  0.00159000  0.19219000  0.19377000  1
  Cl  Cl1350  1  0.50159000  0.69219000  0.69377000  1
  Cl  Cl1351  1  0.85295000  0.04150000  0.00000000  1
  Cl  Cl1352  1  0.35295000  0.54150000  0.50000000  1
  Cl  Cl1353  1  0.85295000  0.54150000  0.00000000  1
  Cl  Cl1354  1  0.35295000  0.04150000  0.50000000  1
  Cl  Cl1355  1  0.95850000  0.14705000  0.00000000  1
  Cl  Cl1356  1  0.45850000  0.64705000  0.50000000  1
  Cl  Cl1357  1  0.95850000  0.64705000  0.00000000  1
  Cl  Cl1358  1  0.45850000  0.14705000  0.50000000  1
  Cl  Cl1359  1  0.69219000  0.00159000  0.69377000  1
  Cl  Cl1360  1  0.69219000  0.50159000  0.69377000  1
  O  O1361  1  0.04967000  0.23268000  0.04715000  1
  O  O1362  1  0.54967000  0.73268000  0.54715000  1
  O  O1363  1  0.04967000  0.73268000  0.04715000  1
  O  O1364  1  0.54967000  0.23268000  0.54715000  1
  O  O1365  1  0.21508000  0.26751000  0.20629000  1
  O  O1366  1  0.71508000  0.76751000  0.70629000  1
  O  O1367  1  0.21508000  0.76751000  0.20629000  1
  O  O1368  1  0.71508000  0.26751000  0.70629000  1
  O  O1369  1  0.16035000  0.21295000  0.14700000  1
  O  O1370  1  0.66035000  0.71295000  0.64700000  1
  O  O1371  1  0.16035000  0.71295000  0.14700000  1
  O  O1372  1  0.66035000  0.21295000  0.64700000  1
  O  O1373  1  0.06619000  0.29220000  0.04809000  1
  O  O1374  1  0.56619000  0.79220000  0.54809000  1
  O  O1375  1  0.06619000  0.79220000  0.04809000  1
  O  O1376  1  0.56619000  0.29220000  0.54809000  1
  O  O1377  1  0.50253000  0.68552000  0.45285000  1
  O  O1378  1  0.00253000  0.18552000  0.95285000  1
  O  O1379  1  0.50253000  0.18552000  0.45285000  1
  O  O1380  1  0.00253000  0.68552000  0.95285000  1
  O  O1381  1  0.26751000  0.21509000  0.20629000  1
  O  O1382  1  0.76751000  0.71509000  0.70629000  1
  O  O1383  1  0.26751000  0.71509000  0.20629000  1
  O  O1384  1  0.76751000  0.21509000  0.70629000  1
  O  O1385  1  0.21295000  0.16035000  0.14700000  1
  O  O1386  1  0.71295000  0.66035000  0.64700000  1
  O  O1387  1  0.21295000  0.66035000  0.14700000  1
  O  O1388  1  0.71295000  0.16035000  0.64700000  1
  O  O1389  1  0.51810000  0.74411000  0.45191000  1
  O  O1390  1  0.01810000  0.24411000  0.95191000  1
  O  O1391  1  0.51810000  0.24411000  0.45191000  1
  O  O1392  1  0.01810000  0.74411000  0.95191000  1
  O  O1393  1  0.51335000  0.56595000  0.35300000  1
  O  O1394  1  0.01335000  0.06595000  0.85300000  1
  O  O1395  1  0.51335000  0.06595000  0.35300000  1
  O  O1396  1  0.01335000  0.56595000  0.85300000  1
  O  O1397  1  0.23268000  0.04967000  0.04715000  1
  O  O1398  1  0.73268000  0.54967000  0.54715000  1
  O  O1399  1  0.23268000  0.54968000  0.04715000  1
  O  O1400  1  0.73268000  0.04968000  0.54715000  1
  O  O1401  1  0.25589000  0.48190000  0.04809000  1
  O  O1402  1  0.75589000  0.98190000  0.54809000  1
  O  O1403  1  0.25589000  0.98190000  0.04809000  1
  O  O1404  1  0.75589000  0.48190000  0.54809000  1
  O  O1405  1  0.56595000  0.51335000  0.35300000  1
  O  O1406  1  0.06595000  0.01335000  0.85300000  1
  O  O1407  1  0.56595000  0.01335000  0.35300000  1
  O  O1408  1  0.06595000  0.51335000  0.85300000  1
  O  O1409  1  0.50880000  0.56122000  0.29371000  1
  O  O1410  1  0.00880000  0.06122000  0.79371000  1
  O  O1411  1  0.50880000  0.06122000  0.29371000  1
  O  O1412  1  0.00880000  0.56122000  0.79371000  1
  O  O1413  1  0.43879000  0.49121000  0.20629000  1
  O  O1414  1  0.93879000  0.99121000  0.70629000  1
  O  O1415  1  0.43879000  0.99121000  0.20629000  1
  O  O1416  1  0.93879000  0.49121000  0.70629000  1
  O  O1417  1  0.68553000  0.50252000  0.45285000  1
  O  O1418  1  0.18553000  0.00252000  0.95285000  1
  O  O1419  1  0.68553000  0.00252000  0.45285000  1
  O  O1420  1  0.18553000  0.50252000  0.95285000  1
  O  O1421  1  0.29220000  0.06619000  0.04809000  1
  O  O1422  1  0.79220000  0.56619000  0.54809000  1
  O  O1423  1  0.29220000  0.56619000  0.04809000  1
  O  O1424  1  0.79220000  0.06619000  0.54809000  1
  O  O1425  1  0.70780000  0.93381000  0.45191000  1
  O  O1426  1  0.20780000  0.43381000  0.95191000  1
  O  O1427  1  0.70780000  0.43381000  0.45191000  1
  O  O1428  1  0.20780000  0.93381000  0.95191000  1
  O  O1429  1  0.31448000  0.49748000  0.04715000  1
  O  O1430  1  0.81448000  0.99748000  0.54715000  1
  O  O1431  1  0.31448000  0.99748000  0.04715000  1
  O  O1432  1  0.81448000  0.49748000  0.54715000  1
  O  O1433  1  0.56122000  0.50880000  0.29371000  1
  O  O1434  1  0.06122000  0.00880000  0.79371000  1
  O  O1435  1  0.56122000  0.00880000  0.29371000  1
  O  O1436  1  0.06122000  0.50880000  0.79371000  1
  O  O1437  1  0.49121000  0.43879000  0.20629000  1
  O  O1438  1  0.99121000  0.93879000  0.70629000  1
  O  O1439  1  0.49121000  0.93879000  0.20629000  1
  O  O1440  1  0.99121000  0.43879000  0.70629000  1
  O  O1441  1  0.43405000  0.48665000  0.14700000  1
  O  O1442  1  0.93405000  0.98665000  0.64700000  1
  O  O1443  1  0.43405000  0.98665000  0.14700000  1
  O  O1444  1  0.93405000  0.48665000  0.64700000  1
  O  O1445  1  0.74411000  0.51810000  0.45191000  1
  O  O1446  1  0.24411000  0.01810000  0.95191000  1
  O  O1447  1  0.74411000  0.01810000  0.45191000  1
  O  O1448  1  0.24411000  0.51810000  0.95191000  1
  O  O1449  1  0.76733000  0.95033000  0.45285000  1
  O  O1450  1  0.26733000  0.45033000  0.95285000  1
  O  O1451  1  0.76733000  0.45033000  0.45285000  1
  O  O1452  1  0.26733000  0.95033000  0.95285000  1
  O  O1453  1  0.48665000  0.43405000  0.14700000  1
  O  O1454  1  0.98665000  0.93405000  0.64700000  1
  O  O1455  1  0.48665000  0.93405000  0.14700000  1
  O  O1456  1  0.98665000  0.43405000  0.64700000  1
  O  O1457  1  0.48190000  0.25589000  0.04809000  1
  O  O1458  1  0.98190000  0.75589000  0.54809000  1
  O  O1459  1  0.48190000  0.75589000  0.04809000  1
  O  O1460  1  0.98190000  0.25589000  0.54809000  1
  O  O1461  1  0.78705000  0.83965000  0.35300000  1
  O  O1462  1  0.28705000  0.33965000  0.85300000  1
  O  O1463  1  0.78705000  0.33965000  0.35300000  1
  O  O1464  1  0.28705000  0.83965000  0.85300000  1
  O  O1465  1  0.73250000  0.78492000  0.29371000  1
  O  O1466  1  0.23250000  0.28492000  0.79371000  1
  O  O1467  1  0.73250000  0.28492000  0.29371000  1
  O  O1468  1  0.23250000  0.78492000  0.79371000  1
  O  O1469  1  0.49748000  0.31448000  0.04715000  1
  O  O1470  1  0.99748000  0.81448000  0.54715000  1
  O  O1471  1  0.49748000  0.81448000  0.04715000  1
  O  O1472  1  0.99748000  0.31448000  0.54715000  1
  O  O1473  1  0.93381000  0.70780000  0.45191000  1
  O  O1474  1  0.43381000  0.20780000  0.95191000  1
  O  O1475  1  0.93381000  0.20780000  0.45191000  1
  O  O1476  1  0.43381000  0.70780000  0.95191000  1
  O  O1477  1  0.83965000  0.78705000  0.35300000  1
  O  O1478  1  0.33965000  0.28705000  0.85300000  1
  O  O1479  1  0.83965000  0.28705000  0.35300000  1
  O  O1480  1  0.33965000  0.78705000  0.85300000  1
  O  O1481  1  0.78492000  0.73250000  0.29371000  1
  O  O1482  1  0.28492000  0.23250000  0.79371000  1
  O  O1483  1  0.78492000  0.23250000  0.29371000  1
  O  O1484  1  0.28492000  0.73250000  0.79371000  1
  O  O1485  1  0.95033000  0.76733000  0.45285000  1
  O  O1486  1  0.45033000  0.26733000  0.95285000  1
  O  O1487  1  0.95033000  0.26733000  0.45285000  1
  O  O1488  1  0.45033000  0.76733000  0.95285000  1
  O  O1489  1  0.54968000  0.23268000  0.04715000  1
  O  O1490  1  0.04968000  0.73268000  0.54715000  1
  O  O1491  1  0.54968000  0.73268000  0.04715000  1
  O  O1492  1  0.04968000  0.23268000  0.54715000  1
  O  O1493  1  0.71508000  0.26750000  0.20629000  1
  O  O1494  1  0.21508000  0.76750000  0.70629000  1
  O  O1495  1  0.71508000  0.76751000  0.20629000  1
  O  O1496  1  0.21508000  0.26751000  0.70629000  1
  O  O1497  1  0.66035000  0.21295000  0.14700000  1
  O  O1498  1  0.16035000  0.71295000  0.64700000  1
  O  O1499  1  0.66035000  0.71295000  0.14700000  1
  O  O1500  1  0.16035000  0.21295000  0.64700000  1
  O  O1501  1  0.56619000  0.29220000  0.04809000  1
  O  O1502  1  0.06619000  0.79220000  0.54809000  1
  O  O1503  1  0.56619000  0.79220000  0.04809000  1
  O  O1504  1  0.06619000  0.29220000  0.54809000  1
  O  O1505  1  0.00253000  0.68552000  0.45285000  1
  O  O1506  1  0.50253000  0.18552000  0.95285000  1
  O  O1507  1  0.00253000  0.18553000  0.45285000  1
  O  O1508  1  0.50253000  0.68553000  0.95285000  1
  O  O1509  1  0.76751000  0.21509000  0.20629000  1
  O  O1510  1  0.26751000  0.71509000  0.70629000  1
  O  O1511  1  0.76751000  0.71509000  0.20629000  1
  O  O1512  1  0.26751000  0.21509000  0.70629000  1
  O  O1513  1  0.71295000  0.16035000  0.14700000  1
  O  O1514  1  0.21295000  0.66035000  0.64700000  1
  O  O1515  1  0.71295000  0.66035000  0.14700000  1
  O  O1516  1  0.21295000  0.16035000  0.64700000  1
  O  O1517  1  0.01810000  0.74411000  0.45191000  1
  O  O1518  1  0.51810000  0.24411000  0.95191000  1
  O  O1519  1  0.01810000  0.24411000  0.45191000  1
  O  O1520  1  0.51810000  0.74411000  0.95191000  1
  O  O1521  1  0.01335000  0.56595000  0.35300000  1
  O  O1522  1  0.51335000  0.06595000  0.85300000  1
  O  O1523  1  0.01335000  0.06595000  0.35300000  1
  O  O1524  1  0.51335000  0.56595000  0.85300000  1
  O  O1525  1  0.73268000  0.04967000  0.04715000  1
  O  O1526  1  0.23268000  0.54967000  0.54715000  1
  O  O1527  1  0.73268000  0.54968000  0.04715000  1
  O  O1528  1  0.23268000  0.04968000  0.54715000  1
  O  O1529  1  0.75589000  0.48190000  0.04809000  1
  O  O1530  1  0.25589000  0.98190000  0.54809000  1
  O  O1531  1  0.75589000  0.98190000  0.04809000  1
  O  O1532  1  0.25589000  0.48190000  0.54809000  1
  O  O1533  1  0.06595000  0.51335000  0.35300000  1
  O  O1534  1  0.56595000  0.01335000  0.85300000  1
  O  O1535  1  0.06595000  0.01335000  0.35300000  1
  O  O1536  1  0.56595000  0.51335000  0.85300000  1
  O  O1537  1  0.00880000  0.56122000  0.29371000  1
  O  O1538  1  0.50880000  0.06122000  0.79371000  1
  O  O1539  1  0.00880000  0.06122000  0.29371000  1
  O  O1540  1  0.50880000  0.56122000  0.79371000  1
  O  O1541  1  0.93879000  0.49121000  0.20629000  1
  O  O1542  1  0.43879000  0.99121000  0.70629000  1
  O  O1543  1  0.93879000  0.99121000  0.20629000  1
  O  O1544  1  0.43879000  0.49121000  0.70629000  1
  O  O1545  1  0.18553000  0.50252000  0.45285000  1
  O  O1546  1  0.68553000  0.00252000  0.95285000  1
  O  O1547  1  0.18553000  0.00252000  0.45285000  1
  O  O1548  1  0.68553000  0.50252000  0.95285000  1
  O  O1549  1  0.79220000  0.06619000  0.04809000  1
  O  O1550  1  0.29220000  0.56619000  0.54809000  1
  O  O1551  1  0.79220000  0.56619000  0.04809000  1
  O  O1552  1  0.29220000  0.06619000  0.54809000  1
  O  O1553  1  0.20780000  0.93381000  0.45191000  1
  O  O1554  1  0.70780000  0.43381000  0.95191000  1
  O  O1555  1  0.20780000  0.43381000  0.45191000  1
  O  O1556  1  0.70780000  0.93381000  0.95191000  1
  O  O1557  1  0.81448000  0.49748000  0.04715000  1
  O  O1558  1  0.31448000  0.99748000  0.54715000  1
  O  O1559  1  0.81448000  0.99748000  0.04715000  1
  O  O1560  1  0.31448000  0.49748000  0.54715000  1
  O  O1561  1  0.06122000  0.50880000  0.29371000  1
  O  O1562  1  0.56122000  0.00880000  0.79371000  1
  O  O1563  1  0.06122000  0.00880000  0.29371000  1
  O  O1564  1  0.56122000  0.50880000  0.79371000  1
  O  O1565  1  0.99121000  0.43879000  0.20629000  1
  O  O1566  1  0.49121000  0.93879000  0.70629000  1
  O  O1567  1  0.99121000  0.93879000  0.20629000  1
  O  O1568  1  0.49121000  0.43879000  0.70629000  1
  O  O1569  1  0.93405000  0.48665000  0.14700000  1
  O  O1570  1  0.43405000  0.98665000  0.64700000  1
  O  O1571  1  0.93405000  0.98665000  0.14700000  1
  O  O1572  1  0.43405000  0.48665000  0.64700000  1
  O  O1573  1  0.24411000  0.51810000  0.45191000  1
  O  O1574  1  0.74411000  0.01810000  0.95191000  1
  O  O1575  1  0.24411000  0.01810000  0.45191000  1
  O  O1576  1  0.74411000  0.51810000  0.95191000  1
  O  O1577  1  0.26733000  0.95033000  0.45285000  1
  O  O1578  1  0.76733000  0.45033000  0.95285000  1
  O  O1579  1  0.26733000  0.45033000  0.45285000  1
  O  O1580  1  0.76733000  0.95033000  0.95285000  1
  O  O1581  1  0.98665000  0.43405000  0.14700000  1
  O  O1582  1  0.48665000  0.93405000  0.64700000  1
  O  O1583  1  0.98665000  0.93405000  0.14700000  1
  O  O1584  1  0.48665000  0.43405000  0.64700000  1
  O  O1585  1  0.98190000  0.25589000  0.04809000  1
  O  O1586  1  0.48190000  0.75589000  0.54809000  1
  O  O1587  1  0.98190000  0.75589000  0.04809000  1
  O  O1588  1  0.48190000  0.25589000  0.54809000  1
  O  O1589  1  0.28705000  0.83965000  0.35300000  1
  O  O1590  1  0.78705000  0.33965000  0.85300000  1
  O  O1591  1  0.28705000  0.33965000  0.35300000  1
  O  O1592  1  0.78705000  0.83965000  0.85300000  1
  O  O1593  1  0.23250000  0.78492000  0.29371000  1
  O  O1594  1  0.73250000  0.28492000  0.79371000  1
  O  O1595  1  0.23250000  0.28492000  0.29371000  1
  O  O1596  1  0.73250000  0.78492000  0.79371000  1
  O  O1597  1  0.99748000  0.31448000  0.04715000  1
  O  O1598  1  0.49748000  0.81448000  0.54715000  1
  O  O1599  1  0.99748000  0.81448000  0.04715000  1
  O  O1600  1  0.49748000  0.31448000  0.54715000  1
  O  O1601  1  0.43381000  0.70780000  0.45191000  1
  O  O1602  1  0.93381000  0.20780000  0.95191000  1
  O  O1603  1  0.43381000  0.20780000  0.45191000  1
  O  O1604  1  0.93381000  0.70780000  0.95191000  1
  O  O1605  1  0.33965000  0.78705000  0.35300000  1
  O  O1606  1  0.83965000  0.28705000  0.85300000  1
  O  O1607  1  0.33965000  0.28705000  0.35300000  1
  O  O1608  1  0.83965000  0.78705000  0.85300000  1
  O  O1609  1  0.28492000  0.73250000  0.29371000  1
  O  O1610  1  0.78492000  0.23250000  0.79371000  1
  O  O1611  1  0.28492000  0.23250000  0.29371000  1
  O  O1612  1  0.78492000  0.73250000  0.79371000  1
  O  O1613  1  0.45033000  0.76732000  0.45285000  1
  O  O1614  1  0.95033000  0.26732000  0.95285000  1
  O  O1615  1  0.45033000  0.26733000  0.45285000  1
  O  O1616  1  0.95033000  0.76733000  0.95285000  1
