# generated using pymatgen
data_Ag3H24(C5N6)4
_symmetry_space_group_name_H-M   'P 1'
_cell_length_a   10.68500000
_cell_length_b   11.82100000
_cell_length_c   36.62500000
_cell_angle_alpha   90.00000000
_cell_angle_beta   90.00000000
_cell_angle_gamma   90.00000000
_symmetry_Int_Tables_number   1
_chemical_formula_structural   Ag3H24(C5N6)4
_chemical_formula_sum   'Ag12 H96 C80 N96'
_cell_volume   4626.00797562
_cell_formula_units_Z   4
loop_
 _symmetry_equiv_pos_site_id
 _symmetry_equiv_pos_as_xyz
  1  'x, y, z'
loop_
 _atom_site_type_symbol
 _atom_site_label
 _atom_site_symmetry_multiplicity
 _atom_site_fract_x
 _atom_site_fract_y
 _atom_site_fract_z
 _atom_site_occupancy
  Ag  Ag0  1  0.09682000  0.56026000  0.20989000  1
  Ag  Ag1  1  0.10595000  0.67055000  0.85967000  1
  Ag  Ag2  1  0.13950000  0.13801000  0.05654000  1
  Ag  Ag3  1  0.36050000  0.86199000  0.55654000  1
  Ag  Ag4  1  0.39405000  0.32945000  0.35967000  1
  Ag  Ag5  1  0.40318000  0.43974000  0.70989000  1
  Ag  Ag6  1  0.59682000  0.93974000  0.79011000  1
  Ag  Ag7  1  0.60595000  0.82945000  0.14033000  1
  Ag  Ag8  1  0.63950000  0.36199000  0.94346000  1
  Ag  Ag9  1  0.86050000  0.63801000  0.44346000  1
  Ag  Ag10  1  0.89405000  0.17055000  0.64033000  1
  Ag  Ag11  1  0.90318000  0.06026000  0.29011000  1
  H  H12  1  0.01819000  0.35005000  0.10812000  1
  H  H13  1  0.04247000  0.61411000  0.11976000  1
  H  H14  1  0.05244000  0.95354000  0.84846000  1
  H  H15  1  0.06025000  0.84925000  0.05300000  1
  H  H16  1  0.06643000  0.31941000  0.27374000  1
  H  H17  1  0.06669000  0.40022000  0.02809000  1
  H  H18  1  0.07584000  0.62968000  0.67371000  1
  H  H19  1  0.07590000  0.59217000  0.94702000  1
  H  H20  1  0.07955000  0.06117000  0.49551000  1
  H  H21  1  0.09136000  0.17854000  0.43716000  1
  H  H22  1  0.12961000  0.89432000  0.31284000  1
  H  H23  1  0.13518000  0.74628000  0.61582000  1
  H  H24  1  0.13802000  0.64291000  0.50240000  1
  H  H25  1  0.15534000  0.39678000  0.84182000  1
  H  H26  1  0.16523000  0.58943000  0.41556000  1
  H  H27  1  0.16610000  0.01136000  0.62740000  1
  H  H28  1  0.17200000  0.26356000  0.75712000  1
  H  H29  1  0.17967000  0.22914000  0.79793000  1
  H  H30  1  0.19193000  0.60043000  0.69733000  1
  H  H31  1  0.19692000  0.22393000  0.67425000  1
  H  H32  1  0.21422000  0.02198000  0.50504000  1
  H  H33  1  0.21670000  0.16076000  0.30699000  1
  H  H34  1  0.22781000  0.63665000  0.77230000  1
  H  H35  1  0.22909000  0.21164000  0.42908000  1
  H  H36  1  0.27091000  0.78836000  0.92908000  1
  H  H37  1  0.27219000  0.36335000  0.27230000  1
  H  H38  1  0.28330000  0.83924000  0.80699000  1
  H  H39  1  0.28578000  0.97802000  0.00504000  1
  H  H40  1  0.30308000  0.77607000  0.17425000  1
  H  H41  1  0.30807000  0.39957000  0.19733000  1
  H  H42  1  0.32033000  0.77086000  0.29793000  1
  H  H43  1  0.32800000  0.73644000  0.25712000  1
  H  H44  1  0.33390000  0.98864000  0.12740000  1
  H  H45  1  0.33477000  0.41057000  0.91556000  1
  H  H46  1  0.34466000  0.60322000  0.34182000  1
  H  H47  1  0.36198000  0.35709000  0.00240000  1
  H  H48  1  0.36482000  0.25372000  0.11582000  1
  H  H49  1  0.37039000  0.10568000  0.81284000  1
  H  H50  1  0.40864000  0.82146000  0.93716000  1
  H  H51  1  0.42045000  0.93883000  0.99551000  1
  H  H52  1  0.42410000  0.40783000  0.44702000  1
  H  H53  1  0.42416000  0.37032000  0.17371000  1
  H  H54  1  0.43331000  0.59978000  0.52809000  1
  H  H55  1  0.43357000  0.68059000  0.77374000  1
  H  H56  1  0.43975000  0.15075000  0.55300000  1
  H  H57  1  0.44756000  0.04646000  0.34846000  1
  H  H58  1  0.45753000  0.38589000  0.61976000  1
  H  H59  1  0.48181000  0.64995000  0.60812000  1
  H  H60  1  0.51819000  0.14995000  0.89188000  1
  H  H61  1  0.54247000  0.88589000  0.88024000  1
  H  H62  1  0.55244000  0.54646000  0.15154000  1
  H  H63  1  0.56025000  0.65075000  0.94700000  1
  H  H64  1  0.56643000  0.18059000  0.72626000  1
  H  H65  1  0.56669000  0.09978000  0.97191000  1
  H  H66  1  0.57584000  0.87032000  0.32629000  1
  H  H67  1  0.57590000  0.90783000  0.05298000  1
  H  H68  1  0.57955000  0.43883000  0.50449000  1
  H  H69  1  0.59136000  0.32146000  0.56284000  1
  H  H70  1  0.62961000  0.60568000  0.68716000  1
  H  H71  1  0.63518000  0.75372000  0.38418000  1
  H  H72  1  0.63802000  0.85709000  0.49760000  1
  H  H73  1  0.65534000  0.10322000  0.15818000  1
  H  H74  1  0.66523000  0.91057000  0.58444000  1
  H  H75  1  0.66610000  0.48864000  0.37260000  1
  H  H76  1  0.67200000  0.23644000  0.24288000  1
  H  H77  1  0.67967000  0.27086000  0.20207000  1
  H  H78  1  0.69193000  0.89957000  0.30267000  1
  H  H79  1  0.69692000  0.27607000  0.32575000  1
  H  H80  1  0.71422000  0.47802000  0.49496000  1
  H  H81  1  0.71670000  0.33924000  0.69301000  1
  H  H82  1  0.72781000  0.86335000  0.22770000  1
  H  H83  1  0.72909000  0.28836000  0.57092000  1
  H  H84  1  0.77091000  0.71164000  0.07092000  1
  H  H85  1  0.77219000  0.13665000  0.72770000  1
  H  H86  1  0.78330000  0.66076000  0.19301000  1
  H  H87  1  0.78578000  0.52198000  0.99496000  1
  H  H88  1  0.80308000  0.72393000  0.82575000  1
  H  H89  1  0.80807000  0.10043000  0.80267000  1
  H  H90  1  0.82033000  0.72914000  0.70207000  1
  H  H91  1  0.82800000  0.76356000  0.74288000  1
  H  H92  1  0.83390000  0.51136000  0.87260000  1
  H  H93  1  0.83477000  0.08943000  0.08444000  1
  H  H94  1  0.84466000  0.89678000  0.65818000  1
  H  H95  1  0.86198000  0.14291000  0.99760000  1
  H  H96  1  0.86482000  0.24628000  0.88418000  1
  H  H97  1  0.87039000  0.39432000  0.18716000  1
  H  H98  1  0.90864000  0.67854000  0.06284000  1
  H  H99  1  0.92045000  0.56117000  0.00449000  1
  H  H100  1  0.92410000  0.09217000  0.55298000  1
  H  H101  1  0.92416000  0.12968000  0.82629000  1
  H  H102  1  0.93331000  0.90022000  0.47191000  1
  H  H103  1  0.93357000  0.81941000  0.22626000  1
  H  H104  1  0.93975000  0.34925000  0.44700000  1
  H  H105  1  0.94756000  0.45354000  0.65154000  1
  H  H106  1  0.95753000  0.11411000  0.38024000  1
  H  H107  1  0.98181000  0.85005000  0.39188000  1
  C  C108  1  0.00180000  0.31810000  0.25590000  1
  C  C109  1  0.00220000  0.56810000  0.93470000  1
  C  C110  1  0.00300000  0.35450000  0.01750000  1
  C  C111  1  0.00900000  0.39010000  0.43740000  1
  C  C112  1  0.02370000  0.41690000  0.65830000  1
  C  C113  1  0.03320000  0.13530000  0.36840000  1
  C  C114  1  0.10140000  0.86010000  0.29060000  1
  C  C115  1  0.10200000  0.34270000  0.11650000  1
  C  C116  1  0.10790000  0.71770000  0.49940000  1
  C  C117  1  0.12660000  0.00870000  0.51040000  1
  C  C118  1  0.13050000  0.02480000  0.60410000  1
  C  C119  1  0.13150000  0.51620000  0.42030000  1
  C  C120  1  0.14480000  0.22190000  0.42180000  1
  C  C121  1  0.15340000  0.58780000  0.67380000  1
  C  C122  1  0.15890000  0.29540000  0.67070000  1
  C  C123  1  0.17290000  0.16110000  0.32970000  1
  C  C124  1  0.18020000  0.43650000  0.82040000  1
  C  C125  1  0.21290000  0.70960000  0.61990000  1
  C  C126  1  0.21850000  0.27150000  0.77930000  1
  C  C127  1  0.21910000  0.56290000  0.78250000  1
  C  C128  1  0.28090000  0.43710000  0.28250000  1
  C  C129  1  0.28150000  0.72850000  0.27930000  1
  C  C130  1  0.28710000  0.29040000  0.11990000  1
  C  C131  1  0.31980000  0.56350000  0.32040000  1
  C  C132  1  0.32710000  0.83890000  0.82970000  1
  C  C133  1  0.34110000  0.70460000  0.17070000  1
  C  C134  1  0.34660000  0.41220000  0.17380000  1
  C  C135  1  0.35520000  0.77810000  0.92180000  1
  C  C136  1  0.36850000  0.48380000  0.92030000  1
  C  C137  1  0.36950000  0.97520000  0.10410000  1
  C  C138  1  0.37340000  0.99130000  0.01040000  1
  C  C139  1  0.39210000  0.28230000  0.99940000  1
  C  C140  1  0.39800000  0.65730000  0.61650000  1
  C  C141  1  0.39860000  0.13990000  0.79060000  1
  C  C142  1  0.46680000  0.86470000  0.86840000  1
  C  C143  1  0.47630000  0.58310000  0.15830000  1
  C  C144  1  0.49100000  0.60990000  0.93740000  1
  C  C145  1  0.49700000  0.64550000  0.51750000  1
  C  C146  1  0.49780000  0.43190000  0.43470000  1
  C  C147  1  0.49820000  0.68190000  0.75590000  1
  C  C148  1  0.50180000  0.18190000  0.74410000  1
  C  C149  1  0.50220000  0.93190000  0.06530000  1
  C  C150  1  0.50300000  0.14550000  0.98250000  1
  C  C151  1  0.50900000  0.10990000  0.56260000  1
  C  C152  1  0.52370000  0.08310000  0.34170000  1
  C  C153  1  0.53320000  0.36470000  0.63160000  1
  C  C154  1  0.60140000  0.63990000  0.70940000  1
  C  C155  1  0.60200000  0.15730000  0.88350000  1
  C  C156  1  0.60790000  0.78230000  0.50060000  1
  C  C157  1  0.62660000  0.49130000  0.48960000  1
  C  C158  1  0.63050000  0.47520000  0.39590000  1
  C  C159  1  0.63150000  0.98380000  0.57970000  1
  C  C160  1  0.64480000  0.27810000  0.57820000  1
  C  C161  1  0.65340000  0.91220000  0.32620000  1
  C  C162  1  0.65890000  0.20460000  0.32930000  1
  C  C163  1  0.67290000  0.33890000  0.67030000  1
  C  C164  1  0.68020000  0.06350000  0.17960000  1
  C  C165  1  0.71290000  0.79040000  0.38010000  1
  C  C166  1  0.71850000  0.22850000  0.22070000  1
  C  C167  1  0.71910000  0.93710000  0.21750000  1
  C  C168  1  0.78090000  0.06290000  0.71750000  1
  C  C169  1  0.78150000  0.77150000  0.72070000  1
  C  C170  1  0.78710000  0.20960000  0.88010000  1
  C  C171  1  0.81980000  0.93650000  0.67960000  1
  C  C172  1  0.82710000  0.66110000  0.17030000  1
  C  C173  1  0.84110000  0.79540000  0.82930000  1
  C  C174  1  0.84660000  0.08780000  0.82620000  1
  C  C175  1  0.85520000  0.72190000  0.07820000  1
  C  C176  1  0.86850000  0.01620000  0.07970000  1
  C  C177  1  0.86950000  0.52480000  0.89590000  1
  C  C178  1  0.87340000  0.50870000  0.98960000  1
  C  C179  1  0.89210000  0.21770000  0.00060000  1
  C  C180  1  0.89800000  0.84270000  0.38350000  1
  C  C181  1  0.89860000  0.36010000  0.20940000  1
  C  C182  1  0.96680000  0.63530000  0.13160000  1
  C  C183  1  0.97630000  0.91690000  0.84170000  1
  C  C184  1  0.99100000  0.89010000  0.06260000  1
  C  C185  1  0.99700000  0.85450000  0.48250000  1
  C  C186  1  0.99780000  0.06810000  0.56530000  1
  C  C187  1  0.99820000  0.81810000  0.24410000  1
  N  N188  1  0.00180000  0.89040000  0.27260000  1
  N  N189  1  0.00190000  0.74360000  0.48080000  1
  N  N190  1  0.01180000  0.50030000  0.43480000  1
  N  N191  1  0.01340000  0.06840000  0.59970000  1
  N  N192  1  0.04150000  0.30760000  0.65800000  1
  N  N193  1  0.05630000  0.11830000  0.33310000  1
  N  N194  1  0.09070000  0.74680000  0.24290000  1
  N  N195  1  0.09420000  0.89550000  0.50130000  1
  N  N196  1  0.10260000  0.02950000  0.54860000  1
  N  N197  1  0.11200000  0.34210000  0.42530000  1
  N  N198  1  0.12730000  0.46880000  0.66950000  1
  N  N199  1  0.12990000  0.18550000  0.38450000  1
  N  N200  1  0.14380000  0.40330000  0.14340000  1
  N  N201  1  0.15760000  0.77330000  0.27330000  1
  N  N202  1  0.16530000  0.80720000  0.51300000  1
  N  N203  1  0.18090000  0.54630000  0.81770000  1
  N  N204  1  0.18270000  0.27250000  0.10150000  1
  N  N205  1  0.18970000  0.00220000  0.57420000  1
  N  N206  1  0.19240000  0.42260000  0.41350000  1
  N  N207  1  0.21630000  0.39110000  0.67800000  1
  N  N208  1  0.21850000  0.38950000  0.78950000  1
  N  N209  1  0.22240000  0.20230000  0.35920000  1
  N  N210  1  0.23450000  0.63210000  0.64560000  1
  N  N211  1  0.24350000  0.47020000  0.76380000  1
  N  N212  1  0.25650000  0.52980000  0.26380000  1
  N  N213  1  0.26550000  0.36790000  0.14560000  1
  N  N214  1  0.27760000  0.79770000  0.85920000  1
  N  N215  1  0.28150000  0.61050000  0.28950000  1
  N  N216  1  0.28370000  0.60890000  0.17800000  1
  N  N217  1  0.30760000  0.57740000  0.91350000  1
  N  N218  1  0.31030000  0.99780000  0.07420000  1
  N  N219  1  0.31730000  0.72750000  0.60150000  1
  N  N220  1  0.31910000  0.45370000  0.31770000  1
  N  N221  1  0.33470000  0.19280000  0.01300000  1
  N  N222  1  0.34240000  0.22670000  0.77330000  1
  N  N223  1  0.35620000  0.59670000  0.64340000  1
  N  N224  1  0.37010000  0.81450000  0.88450000  1
  N  N225  1  0.37270000  0.53120000  0.16950000  1
  N  N226  1  0.38800000  0.65790000  0.92530000  1
  N  N227  1  0.39740000  0.97050000  0.04860000  1
  N  N228  1  0.40580000  0.10450000  0.00130000  1
  N  N229  1  0.40930000  0.25320000  0.74290000  1
  N  N230  1  0.44370000  0.88170000  0.83310000  1
  N  N231  1  0.45850000  0.69240000  0.15800000  1
  N  N232  1  0.48660000  0.93160000  0.09970000  1
  N  N233  1  0.48820000  0.49970000  0.93480000  1
  N  N234  1  0.49810000  0.25640000  0.98080000  1
  N  N235  1  0.49820000  0.10960000  0.77260000  1
  N  N236  1  0.50180000  0.60960000  0.72740000  1
  N  N237  1  0.50190000  0.75640000  0.51920000  1
  N  N238  1  0.51180000  0.99970000  0.56520000  1
  N  N239  1  0.51340000  0.43160000  0.40030000  1
  N  N240  1  0.54150000  0.19240000  0.34200000  1
  N  N241  1  0.55630000  0.38170000  0.66690000  1
  N  N242  1  0.59070000  0.75320000  0.75710000  1
  N  N243  1  0.59420000  0.60450000  0.49870000  1
  N  N244  1  0.60260000  0.47050000  0.45140000  1
  N  N245  1  0.61200000  0.15790000  0.57470000  1
  N  N246  1  0.62730000  0.03120000  0.33050000  1
  N  N247  1  0.62990000  0.31450000  0.61550000  1
  N  N248  1  0.64380000  0.09670000  0.85660000  1
  N  N249  1  0.65760000  0.72670000  0.72670000  1
  N  N250  1  0.66530000  0.69280000  0.48700000  1
  N  N251  1  0.68090000  0.95370000  0.18230000  1
  N  N252  1  0.68270000  0.22750000  0.89850000  1
  N  N253  1  0.68970000  0.49780000  0.42580000  1
  N  N254  1  0.69240000  0.07740000  0.58650000  1
  N  N255  1  0.71630000  0.10890000  0.32200000  1
  N  N256  1  0.71850000  0.11050000  0.21050000  1
  N  N257  1  0.72240000  0.29770000  0.64080000  1
  N  N258  1  0.73450000  0.86790000  0.35440000  1
  N  N259  1  0.74350000  0.02980000  0.23620000  1
  N  N260  1  0.75650000  0.97020000  0.73620000  1
  N  N261  1  0.76550000  0.13210000  0.85440000  1
  N  N262  1  0.77760000  0.70230000  0.14080000  1
  N  N263  1  0.78150000  0.88950000  0.71050000  1
  N  N264  1  0.78370000  0.89110000  0.82200000  1
  N  N265  1  0.80760000  0.92260000  0.08650000  1
  N  N266  1  0.81030000  0.50220000  0.92580000  1
  N  N267  1  0.81730000  0.77250000  0.39850000  1
  N  N268  1  0.81910000  0.04630000  0.68230000  1
  N  N269  1  0.83470000  0.30720000  0.98700000  1
  N  N270  1  0.84240000  0.27330000  0.22670000  1
  N  N271  1  0.85620000  0.90330000  0.35660000  1
  N  N272  1  0.87010000  0.68550000  0.11550000  1
  N  N273  1  0.87270000  0.96880000  0.83050000  1
  N  N274  1  0.88800000  0.84210000  0.07470000  1
  N  N275  1  0.89740000  0.52950000  0.95140000  1
  N  N276  1  0.90580000  0.39550000  0.99870000  1
  N  N277  1  0.90930000  0.24680000  0.25710000  1
  N  N278  1  0.94370000  0.61830000  0.16690000  1
  N  N279  1  0.95850000  0.80760000  0.84200000  1
  N  N280  1  0.98660000  0.56840000  0.90030000  1
  N  N281  1  0.98820000  0.00030000  0.06520000  1
  N  N282  1  0.99810000  0.24360000  0.01920000  1
  N  N283  1  0.99820000  0.39040000  0.22740000  1
