# generated using pymatgen
data_Co3H52C70(N3O10)2
_symmetry_space_group_name_H-M   'P 1'
_cell_length_a   14.82500000
_cell_length_b   16.67220000
_cell_length_c   16.67220000
_cell_angle_alpha   118.83500000
_cell_angle_beta   96.31730000
_cell_angle_gamma   96.31730000
_symmetry_Int_Tables_number   1
_chemical_formula_structural   Co3H52C70(N3O10)2
_chemical_formula_sum   'Co3 H52 C70 N6 O20'
_cell_volume   3524.42889421
_cell_formula_units_Z   1
loop_
 _symmetry_equiv_pos_site_id
 _symmetry_equiv_pos_as_xyz
  1  'x, y, z'
loop_
 _atom_site_type_symbol
 _atom_site_label
 _atom_site_symmetry_multiplicity
 _atom_site_fract_x
 _atom_site_fract_y
 _atom_site_fract_z
 _atom_site_occupancy
  Co  Co0  1  0.00939000  0.01089000  0.20095000  1
  Co  Co1  1  0.99061000  0.79905000  0.98911000  1
  Co  Co2  1  0.00000000  0.80203000  0.19797000  1
  H  H3  1  0.00140000  0.60300000  0.16460000  1
  H  H4  1  0.00370000  0.52330000  0.24290000  1
  H  H5  1  0.00770000  0.33370000  0.24590000  1
  H  H6  1  0.01130000  0.17700000  0.16820000  1
  H  H7  1  0.01370000  0.32500000  0.48180000  1
  H  H8  1  0.01970000  0.17180000  0.40080000  1
  H  H9  1  0.15430000  0.57560000  0.89400000  1
  H  H10  1  0.15840000  0.93640000  0.87800000  1
  H  H11  1  0.19970000  0.64140000  0.15760000  1
  H  H12  1  0.20130000  0.15670000  0.12270000  1
  H  H13  1  0.21690000  0.90110000  0.41830000  1
  H  H14  1  0.22750000  0.45380000  0.85600000  1
  H  H15  1  0.22770000  0.02020000  0.82160000  1
  H  H16  1  0.26270000  0.13900000  0.41880000  1
  H  H17  1  0.27800000  0.30480000  0.84540000  1
  H  H18  1  0.28930000  0.52870000  0.12610000  1
  H  H19  1  0.29650000  0.23430000  0.06830000  1
  H  H20  1  0.35290000  0.38450000  0.85350000  1
  H  H21  1  0.35810000  0.94230000  0.51410000  1
  H  H22  1  0.37000000  0.18360000  0.76820000  1
  H  H23  1  0.37080000  0.30020000  0.01160000  1
  H  H24  1  0.39840000  0.18500000  0.52140000  1
  H  H25  1  0.43480000  0.22760000  0.96440000  1
  H  H26  1  0.43840000  0.26160000  0.76680000  1
  H  H27  1  0.45530000  0.03850000  0.66310000  1
  H  H28  1  0.48890000  0.41720000  0.01040000  1
  H  H29  1  0.51110000  0.98960000  0.58280000  1
  H  H30  1  0.54470000  0.33690000  0.96150000  1
  H  H31  1  0.56160000  0.23320000  0.73840000  1
  H  H32  1  0.56520000  0.03560000  0.77240000  1
  H  H33  1  0.60160000  0.47860000  0.81500000  1
  H  H34  1  0.62920000  0.98840000  0.69980000  1
  H  H35  1  0.63000000  0.23180000  0.81640000  1
  H  H36  1  0.64190000  0.48590000  0.05770000  1
  H  H37  1  0.64710000  0.14650000  0.61550000  1
  H  H38  1  0.70350000  0.93170000  0.76570000  1
  H  H39  1  0.71070000  0.87390000  0.47130000  1
  H  H40  1  0.72200000  0.15460000  0.69520000  1
  H  H41  1  0.73730000  0.58120000  0.86100000  1
  H  H42  1  0.77230000  0.17840000  0.97980000  1
  H  H43  1  0.77250000  0.14400000  0.54620000  1
  H  H44  1  0.78310000  0.58170000  0.09890000  1
  H  H45  1  0.79870000  0.87730000  0.84330000  1
  H  H46  1  0.80030000  0.84240000  0.35860000  1
  H  H47  1  0.84160000  0.12200000  0.06360000  1
  H  H48  1  0.84570000  0.10600000  0.42440000  1
  H  H49  1  0.98030000  0.59920000  0.82820000  1
  H  H50  1  0.98630000  0.51820000  0.67500000  1
  H  H51  1  0.98870000  0.83180000  0.82300000  1
  H  H52  1  0.99230000  0.75410000  0.66630000  1
  H  H53  1  0.99630000  0.75710000  0.47670000  1
  H  H54  1  0.99860000  0.83540000  0.39700000  1
  C  C55  1  0.00110000  0.63450000  0.22830000  1
  C  C56  1  0.00180000  0.58660000  0.27480000  1
  C  C57  1  0.00370000  0.44590000  0.42230000  1
  C  C58  1  0.00780000  0.34670000  0.37210000  1
  C  C59  1  0.00890000  0.30120000  0.27820000  1
  C  C60  1  0.01170000  0.20730000  0.23190000  1
  C  C61  1  0.01270000  0.29620000  0.41800000  1
  C  C62  1  0.01630000  0.20460000  0.36880000  1
  C  C63  1  0.11630000  0.69760000  0.05640000  1
  C  C64  1  0.11920000  0.98540000  0.04540000  1
  C  C65  1  0.13920000  0.98060000  0.33320000  1
  C  C66  1  0.16910000  0.61970000  0.03050000  1
  C  C67  1  0.17070000  0.03780000  0.00680000  1
  C  C68  1  0.17940000  0.56410000  0.94030000  1
  C  C69  1  0.18160000  0.99950000  0.91810000  1
  C  C70  1  0.20810000  0.60460000  0.09680000  1
  C  C71  1  0.20910000  0.12590000  0.06090000  1
  C  C72  1  0.22500000  0.04910000  0.88470000  1
  C  C73  1  0.22500000  0.49350000  0.91810000  1
  C  C74  1  0.22630000  0.01310000  0.40470000  1
  C  C75  1  0.25450000  0.95790000  0.43710000  1
  C  C76  1  0.26030000  0.53640000  0.07840000  1
  C  C77  1  0.26240000  0.17500000  0.02700000  1
  C  C78  1  0.26380000  0.13760000  0.93900000  1
  C  C79  1  0.26830000  0.47900000  0.98600000  1
  C  C80  1  0.28130000  0.09900000  0.43880000  1
  C  C81  1  0.33380000  0.35000000  0.88360000  1
  C  C82  1  0.33740000  0.98360000  0.49700000  1
  C  C83  1  0.36190000  0.12710000  0.50030000  1
  C  C84  1  0.38430000  0.25500000  0.95240000  1
  C  C85  1  0.38850000  0.06930000  0.53070000  1
  C  C86  1  0.40980000  0.30150000  0.89750000  1
  C  C87  1  0.42540000  0.23080000  0.80200000  1
  C  C88  1  0.49800000  0.36880000  0.95060000  1
  C  C89  1  0.50200000  0.04940000  0.63120000  1
  C  C90  1  0.57460000  0.19800000  0.76920000  1
  C  C91  1  0.59020000  0.10250000  0.69850000  1
  C  C92  1  0.61150000  0.46930000  0.93070000  1
  C  C93  1  0.61570000  0.04760000  0.74500000  1
  C  C94  1  0.63810000  0.49970000  0.87290000  1
  C  C95  1  0.66260000  0.50300000  0.01640000  1
  C  C96  1  0.66620000  0.11640000  0.65000000  1
  C  C97  1  0.71870000  0.56120000  0.90100000  1
  C  C98  1  0.73170000  0.01400000  0.52100000  1
  C  C99  1  0.73620000  0.06100000  0.86240000  1
  C  C100  1  0.73760000  0.97300000  0.82500000  1
  C  C101  1  0.73970000  0.92160000  0.46360000  1
  C  C102  1  0.74550000  0.56290000  0.04210000  1
  C  C103  1  0.77370000  0.59530000  0.98690000  1
  C  C104  1  0.77500000  0.08190000  0.50650000  1
  C  C105  1  0.77500000  0.11530000  0.95090000  1
  C  C106  1  0.79090000  0.93910000  0.87410000  1
  C  C107  1  0.79190000  0.90320000  0.39540000  1
  C  C108  1  0.81840000  0.08190000  0.00050000  1
  C  C109  1  0.82060000  0.05970000  0.43590000  1
  C  C110  1  0.82930000  0.99320000  0.96220000  1
  C  C111  1  0.83090000  0.96950000  0.38030000  1
  C  C112  1  0.86080000  0.66680000  0.01940000  1
  C  C113  1  0.88080000  0.95460000  0.01460000  1
  C  C114  1  0.88370000  0.94360000  0.30240000  1
  C  C115  1  0.98370000  0.63120000  0.79540000  1
  C  C116  1  0.98730000  0.58200000  0.70380000  1
  C  C117  1  0.98830000  0.76810000  0.79270000  1
  C  C118  1  0.99110000  0.72180000  0.69880000  1
  C  C119  1  0.99220000  0.62790000  0.65330000  1
  C  C120  1  0.99630000  0.57770000  0.55410000  1
  C  C121  1  0.99820000  0.72520000  0.41340000  1
  C  C122  1  0.99890000  0.77170000  0.36550000  1
  C  C123  1  0.00000000  0.58030000  0.41970000  1
  C  C124  1  0.00000000  0.63090000  0.36910000  1
  N  N125  1  0.00330000  0.48940000  0.37240000  1
  N  N126  1  0.01510000  0.15800000  0.27660000  1
  N  N127  1  0.98490000  0.72340000  0.84200000  1
  N  N128  1  0.99670000  0.62760000  0.51060000  1
  N  N129  1  0.00000000  0.48730000  0.51270000  1
  N  N130  1  0.00000000  0.72800000  0.27200000  1
  O  O131  1  0.08410000  0.71433000  0.99347000  1
  O  O132  1  0.09320000  0.90522000  0.31298000  1
  O  O133  1  0.09580000  0.90000000  0.99320000  1
  O  O134  1  0.10280000  0.03160000  0.12420000  1
  O  O135  1  0.10690000  0.74060000  0.13880000  1
  O  O136  1  0.12050000  0.03187000  0.30133000  1
  O  O137  1  0.30380000  0.18380000  0.89680000  1
  O  O138  1  0.31850000  0.41090000  0.97370000  1
  O  O139  1  0.47310000  0.10240000  0.59140000  1
  O  O140  1  0.50000000  0.18860000  0.81140000  1
  O  O141  1  0.52690000  0.40860000  0.89760000  1
  O  O142  1  0.68150000  0.02630000  0.58910000  1
  O  O143  1  0.69620000  0.10320000  0.81620000  1
  O  O144  1  0.87950000  0.69867000  0.96813000  1
  O  O145  1  0.89310000  0.86120000  0.25940000  1
  O  O146  1  0.89720000  0.87580000  0.96840000  1
  O  O147  1  0.90420000  0.00680000  0.10000000  1
  O  O148  1  0.90680000  0.68702000  0.09478000  1
  O  O149  1  0.91590000  0.00653000  0.28567000  1
  O  O150  1  0.00000000  0.87220000  0.12780000  1
