# generated using pymatgen
data_Cu17H144C168(BrN30)2
_symmetry_space_group_name_H-M   'P 1'
_cell_length_a   20.01400000
_cell_length_b   21.45470888
_cell_length_c   25.08500000
_cell_angle_alpha   81.09450133
_cell_angle_beta   70.61600000
_cell_angle_gamma   62.19755336
_symmetry_Int_Tables_number   1
_chemical_formula_structural   Cu17H144C168(BrN30)2
_chemical_formula_sum   'Cu34 H288 C336 Br4 N120'
_cell_volume   8987.84051649
_cell_formula_units_Z   2
loop_
 _symmetry_equiv_pos_site_id
 _symmetry_equiv_pos_as_xyz
  1  'x, y, z'
loop_
 _atom_site_type_symbol
 _atom_site_label
 _atom_site_symmetry_multiplicity
 _atom_site_fract_x
 _atom_site_fract_y
 _atom_site_fract_z
 _atom_site_occupancy
  Br  Br0  1  0.18979000  0.35800000  0.51096000  1
  Br  Br1  1  0.54779000  0.64200000  0.01096000  1
  Br  Br2  1  0.81021000  0.64200000  0.48904000  1
  Br  Br3  1  0.45221000  0.35800000  0.98904000  1
  C  C4  1  0.11602000  0.75536000  0.00310000  1
  C  C5  1  0.87138000  0.24464000  0.50310000  1
  C  C6  1  0.39434000  0.18692000  0.40662000  1
  C  C7  1  0.58126000  0.81308000  0.90662000  1
  C  C8  1  0.40461000  0.16558000  0.58071000  1
  C  C9  1  0.57019000  0.83442000  0.08071000  1
  C  C10  1  0.16956000  0.63188000  0.51522000  1
  C  C11  1  0.80144000  0.36812000  0.01522000  1
  C  C12  1  0.28234000  0.39952000  0.61192000  1
  C  C13  1  0.68186000  0.60048000  0.11192000  1
  C  C14  1  0.42146000  0.10988000  0.61962000  1
  C  C15  1  0.53134000  0.89012000  0.11962000  1
  C  C16  1  0.21512000  0.51816000  0.89650000  1
  C  C17  1  0.73328000  0.48184000  0.39650000  1
  C  C18  1  0.42367000  0.09866000  0.84997000  1
  C  C19  1  0.52233000  0.90134000  0.34997000  1
  C  C20  1  0.23756000  0.46968000  0.62735000  1
  C  C21  1  0.70724000  0.53032000  0.12735000  1
  C  C22  1  0.12072000  0.70036000  0.53184000  1
  C  C23  1  0.82108000  0.29964000  0.03184000  1
  C  C24  1  0.15592000  0.61456000  0.03703000  1
  C  C25  1  0.77048000  0.38544000  0.53703000  1
  C  C26  1  0.41472000  0.08716000  0.05770000  1
  C  C27  1  0.50188000  0.91284000  0.55770000  1
  C  C28  1  0.37676000  0.15748000  0.07440000  1
  C  C29  1  0.53424000  0.84252000  0.57440000  1
  C  C30  1  0.26539000  0.37882000  0.92928000  1
  C  C31  1  0.64421000  0.62118000  0.42928000  1
  C  C32  1  0.17713000  0.54114000  0.05491000  1
  C  C33  1  0.71827000  0.45886000  0.55491000  1
  C  C34  1  0.07323000  0.73874000  0.05530000  1
  C  C35  1  0.81197000  0.26126000  0.55530000  1
  C  C36  1  0.34458000  0.18364000  0.55774000  1
  C  C37  1  0.52822000  0.81636000  0.05774000  1
  C  C38  1  0.16935000  0.53050000  0.22070000  1
  C  C39  1  0.69985000  0.46950000  0.72070000  1
  C  C40  1  0.25533000  0.34734000  0.64405000  1
  C  C41  1  0.60267000  0.65266000  0.14405000  1
  C  C42  1  0.09267000  0.66926000  0.07210000  1
  C  C43  1  0.76193000  0.33074000  0.57210000  1
  C  C44  1  0.19642000  0.46016000  0.23650000  1
  C  C45  1  0.65658000  0.53984000  0.73650000  1
  C  C46  1  0.37591000  0.07338000  0.63370000  1
  C  C47  1  0.44929000  0.92662000  0.13370000  1
  C  C48  1  0.11586000  0.59208000  0.73933000  1
  C  C49  1  0.70794000  0.40792000  0.23933000  1
  C  C50  1  0.16121000  0.49718000  0.93730000  1
  C  C51  1  0.65839000  0.50282000  0.43730000  1
  C  C52  1  0.14076000  0.53268000  0.77218000  1
  C  C53  1  0.37779000  0.05862000  0.03870000  1
  C  C54  1  0.43641000  0.94138000  0.53870000  1
  C  C55  1  0.67344000  0.46732000  0.27218000  1
  C  C56  1  0.37851000  0.05658000  0.80547000  1
  C  C57  1  0.43509000  0.94342000  0.30547000  1
  C  C58  1  0.30172000  0.19876000  0.06890000  1
  C  C59  1  0.50048000  0.80124000  0.56890000  1
  C  C60  1  0.18757000  0.42686000  0.95410000  1
  C  C61  1  0.61443000  0.57314000  0.45410000  1
  C  C62  1  0.10391000  0.58058000  0.25860000  1
  C  C63  1  0.29822000  0.19196000  0.38188000  1
  C  C64  1  0.49018000  0.80804000  0.88188000  1
  C  C65  1  0.68449000  0.41942000  0.75860000  1
  C  C66  1  0.36673000  0.05294000  0.25440000  1
  C  C67  1  0.41967000  0.94706000  0.75440000  1
  C  C68  1  0.16824000  0.44772000  0.09425000  1
  C  C69  1  0.61596000  0.55228000  0.59425000  1
  C  C70  1  0.04636000  0.68788000  0.41500000  1
  C  C71  1  0.73424000  0.31212000  0.91500000  1
  C  C72  1  0.00584000  0.75592000  0.43630000  1
  C  C73  1  0.76176000  0.24408000  0.93630000  1
  C  C74  1  0.15904000  0.44032000  0.28920000  1
  C  C75  1  0.59936000  0.55968000  0.78920000  1
  C  C76  1  0.29865000  0.14730000  0.57170000  1
  C  C77  1  0.44595000  0.85270000  0.07170000  1
  C  C78  1  0.97070000  0.80180000  0.24200000  1
  C  C79  1  0.77250000  0.19820000  0.74200000  1
  C  C80  1  0.36042000  0.01076000  0.77978000  1
  C  C81  1  0.37118000  0.98924000  0.27978000  1
  C  C82  1  0.05846000  0.60508000  0.71360000  1
  C  C83  1  0.66354000  0.39492000  0.21360000  1
  C  C84  1  0.31456000  0.09188000  0.61040000  1
  C  C85  1  0.40644000  0.90812000  0.11040000  1
  C  C86  1  0.31196000  0.09088000  0.22510000  1
  C  C87  1  0.40284000  0.90912000  0.72510000  1
  C  C88  1  0.03792000  0.63276000  0.44929000  1
  C  C89  1  0.67068000  0.36724000  0.94929000  1
  C  C90  1  0.10864000  0.48532000  0.78042000  1
  C  C91  1  0.59396000  0.51468000  0.28042000  1
  C  C92  1  0.14022000  0.41976000  0.81179000  1
  C  C93  1  0.55998000  0.58024000  0.31179000  1
  C  C94  1  0.30030000  0.09720000  0.03710000  1
  C  C95  1  0.39750000  0.90280000  0.53710000  1
  C  C96  1  0.96000000  0.77680000  0.29890000  1
  C  C97  1  0.73680000  0.22320000  0.79890000  1
  C  C98  1  0.06721000  0.56038000  0.31130000  1
  C  C99  1  0.62759000  0.43962000  0.81130000  1
  C  C100  1  0.26256000  0.16908000  0.05210000  1
  C  C101  1  0.43164000  0.83092000  0.55210000  1
  C  C102  1  0.17197000  0.34586000  0.15869000  1
  C  C103  1  0.51783000  0.65414000  0.65869000  1
  C  C104  1  0.09383000  0.48974000  0.32769000  1
  C  C105  1  0.58357000  0.51026000  0.82769000  1
  C  C106  1  0.95315000  0.76850000  0.49080000  1
  C  C107  1  0.72165000  0.23150000  0.99080000  1
  C  C108  1  0.13540000  0.39880000  0.12338000  1
  C  C109  1  0.53420000  0.60120000  0.62338000  1
  C  C110  1  0.18559000  0.29342000  0.68878000  1
  C  C111  1  0.47901000  0.70658000  0.18878000  1
  C  C112  1  0.93630000  0.78840000  0.20950000  1
  C  C113  1  0.72470000  0.21160000  0.70950000  1
  C  C114  1  0.24348000  0.17224000  0.36996000  1
  C  C115  1  0.41572000  0.82776000  0.86996000  1
  C  C116  1  0.15184000  0.33112000  0.86761000  1
  C  C117  1  0.48296000  0.66888000  0.36761000  1
  C  C118  1  0.91125000  0.80350000  0.00120000  1
  C  C119  1  0.71475000  0.19650000  0.50120000  1
  C  C120  1  0.98880000  0.64480000  0.50532000  1
  C  C121  1  0.63360000  0.35520000  0.00532000  1
  C  C122  1  0.93822000  0.73336000  0.99050000  1
  C  C123  1  0.67158000  0.26664000  0.49050000  1
  C  C124  1  0.02387000  0.55986000  0.72386000  1
  C  C125  1  0.58373000  0.44014000  0.22386000  1
  C  C126  1  0.19698000  0.21224000  0.33530000  1
  C  C127  1  0.40922000  0.78776000  0.83530000  1
  C  C128  1  0.94474000  0.71452000  0.52480000  1
  C  C129  1  0.65926000  0.28548000  0.02480000  1
  C  C130  1  0.86995000  0.86150000  0.64340000  1
  C  C131  1  0.73145000  0.13850000  0.14340000  1
  C  C132  1  0.28347000  0.03386000  0.77740000  1
  C  C133  1  0.31733000  0.96614000  0.27740000  1
  C  C134  1  0.04871000  0.49998000  0.75645000  1
  C  C135  1  0.54869000  0.50002000  0.25645000  1
  C  C136  1  0.26043000  0.06714000  0.22080000  1
  C  C137  1  0.32757000  0.93286000  0.72080000  1
  C  C138  1  0.14325000  0.29730000  0.18320000  1
  C  C139  1  0.44055000  0.70270000  0.68320000  1
  C  C140  1  0.23366000  0.11388000  0.39710000  1
  C  C141  1  0.34754000  0.88612000  0.89710000  1
  C  C142  1  0.04967000  0.46886000  0.38097000  1
  C  C143  1  0.51853000  0.53114000  0.88097000  1
  C  C144  1  0.95999000  0.64722000  0.86140000  1
  C  C145  1  0.60721000  0.35278000  0.36140000  1
  C  C146  1  0.91025000  0.74390000  0.32170000  1
  C  C147  1  0.65415000  0.25610000  0.82170000  1
  C  C148  1  0.98698000  0.58804000  0.54553000  1
  C  C149  1  0.57502000  0.41196000  0.04553000  1
  C  C150  1  0.86137000  0.83006000  0.05520000  1
  C  C151  1  0.69143000  0.16994000  0.55520000  1
  C  C152  1  0.13166000  0.28368000  0.91284000  1
  C  C153  1  0.41534000  0.71632000  0.41284000  1
  C  C154  1  0.82139000  0.90322000  0.60970000  1
  C  C155  1  0.72461000  0.09678000  0.10970000  1
  C  C156  1  0.92212000  0.70116000  0.82742000  1
  C  C157  1  0.62328000  0.29884000  0.32742000  1
  C  C158  1  0.06842000  0.40136000  0.11451000  1
  C  C159  1  0.46978000  0.59864000  0.61451000  1
  C  C160  1  0.89013000  0.75394000  0.23150000  1
  C  C161  1  0.64407000  0.24606000  0.73150000  1
  C  C162  1  0.16020000  0.21320000  0.90240000  1
  C  C163  1  0.37340000  0.78680000  0.40240000  1
  C  C164  1  0.26212000  0.00516000  0.24910000  1
  C  C165  1  0.26728000  0.99484000  0.74910000  1
  C  C166  1  0.91757000  0.69046000  0.03340000  1
  C  C167  1  0.60803000  0.30954000  0.53340000  1
  C  C168  1  0.85890000  0.80460000  0.67180000  1
  C  C169  1  0.66350000  0.19540000  0.17180000  1
  C  C170  1  0.12492000  0.26796000  0.71242000  1
  C  C171  1  0.39288000  0.73204000  0.21242000  1
  C  C172  1  0.87508000  0.73204000  0.28758000  1
  C  C173  1  0.60712000  0.26796000  0.78758000  1
  C  C174  1  0.14110000  0.19540000  0.32820000  1
  C  C175  1  0.33650000  0.80460000  0.82820000  1
  C  C176  1  0.08243000  0.30954000  0.96660000  1
  C  C177  1  0.39197000  0.69046000  0.46660000  1
  C  C178  1  0.73788000  0.99484000  0.75090000  1
  C  C179  1  0.73272000  0.00516000  0.25090000  1
  C  C180  1  0.83980000  0.78680000  0.09760000  1
  C  C181  1  0.62660000  0.21320000  0.59760000  1
  C  C182  1  0.10987000  0.24606000  0.76850000  1
  C  C183  1  0.35593000  0.75394000  0.26850000  1
  C  C184  1  0.93158000  0.59864000  0.88549000  1
  C  C185  1  0.53022000  0.40136000  0.38549000  1
  C  C186  1  0.07788000  0.29884000  0.17258000  1
  C  C187  1  0.37672000  0.70116000  0.67258000  1
  C  C188  1  0.17861000  0.09678000  0.39030000  1
  C  C189  1  0.27539000  0.90322000  0.89030000  1
  C  C190  1  0.86834000  0.71632000  0.08716000  1
  C  C191  1  0.58466000  0.28368000  0.58716000  1
  C  C192  1  0.13863000  0.16994000  0.94480000  1
  C  C193  1  0.30857000  0.83006000  0.44480000  1
  C  C194  1  0.01302000  0.41196000  0.45447000  1
  C  C195  1  0.42498000  0.58804000  0.95447000  1
  C  C196  1  0.08975000  0.25610000  0.67830000  1
  C  C197  1  0.34585000  0.74390000  0.17830000  1
  C  C198  1  0.04001000  0.35278000  0.13860000  1
  C  C199  1  0.39279000  0.64722000  0.63860000  1
  C  C200  1  0.95033000  0.53114000  0.61903000  1
  C  C201  1  0.48147000  0.46886000  0.11903000  1
  C  C202  1  0.76634000  0.88612000  0.60290000  1
  C  C203  1  0.65246000  0.11388000  0.10290000  1
  C  C204  1  0.85675000  0.70270000  0.81680000  1
  C  C205  1  0.55945000  0.29730000  0.31680000  1
  C  C206  1  0.73957000  0.93286000  0.77920000  1
  C  C207  1  0.67243000  0.06714000  0.27920000  1
  C  C208  1  0.95129000  0.50002000  0.24355000  1
  C  C209  1  0.45131000  0.49998000  0.74355000  1
  C  C210  1  0.71653000  0.96614000  0.22260000  1
  C  C211  1  0.68267000  0.03386000  0.72260000  1
  C  C212  1  0.13005000  0.13850000  0.35660000  1
  C  C213  1  0.26855000  0.86150000  0.85660000  1
  C  C214  1  0.05526000  0.28548000  0.47520000  1
  C  C215  1  0.34074000  0.71452000  0.97520000  1
  C  C216  1  0.80302000  0.78776000  0.66470000  1
  C  C217  1  0.59078000  0.21224000  0.16470000  1
  C  C218  1  0.97613000  0.44014000  0.27614000  1
  C  C219  1  0.41627000  0.55986000  0.77614000  1
  C  C220  1  0.06178000  0.26664000  0.00950000  1
  C  C221  1  0.32842000  0.73336000  0.50950000  1
  C  C222  1  0.01120000  0.35520000  0.49468000  1
  C  C223  1  0.36640000  0.64480000  0.99468000  1
  C  C224  1  0.08875000  0.19650000  0.99880000  1
  C  C225  1  0.28525000  0.80350000  0.49880000  1
  C  C226  1  0.84816000  0.66888000  0.13239000  1
  C  C227  1  0.51704000  0.33112000  0.63239000  1
  C  C228  1  0.75652000  0.82776000  0.63004000  1
  C  C229  1  0.58428000  0.17224000  0.13004000  1
  C  C230  1  0.06370000  0.21160000  0.79050000  1
  C  C231  1  0.27530000  0.78840000  0.29050000  1
  C  C232  1  0.81441000  0.70658000  0.31122000  1
  C  C233  1  0.52099000  0.29342000  0.81122000  1
  C  C234  1  0.86460000  0.60120000  0.87662000  1
  C  C235  1  0.46580000  0.39880000  0.37662000  1
  C  C236  1  0.04685000  0.23150000  0.50920000  1
  C  C237  1  0.27835000  0.76850000  0.00920000  1
  C  C238  1  0.90617000  0.51026000  0.67231000  1
  C  C239  1  0.41643000  0.48974000  0.17231000  1
  C  C240  1  0.82803000  0.65414000  0.84131000  1
  C  C241  1  0.48217000  0.34586000  0.34131000  1
  C  C242  1  0.73744000  0.83092000  0.94790000  1
  C  C243  1  0.56836000  0.16908000  0.44790000  1
  C  C244  1  0.93279000  0.43962000  0.68870000  1
  C  C245  1  0.37241000  0.56038000  0.18870000  1
  C  C246  1  0.04000000  0.22320000  0.70110000  1
  C  C247  1  0.26320000  0.77680000  0.20110000  1
  C  C248  1  0.69970000  0.90280000  0.96290000  1
  C  C249  1  0.60250000  0.09720000  0.46290000  1
  C  C250  1  0.85978000  0.58024000  0.18821000  1
  C  C251  1  0.44002000  0.41976000  0.68821000  1
  C  C252  1  0.89136000  0.51468000  0.21958000  1
  C  C253  1  0.40604000  0.48532000  0.71958000  1
  C  C254  1  0.96208000  0.36724000  0.55071000  1
  C  C255  1  0.32932000  0.63276000  0.05071000  1
  C  C256  1  0.68804000  0.90912000  0.77490000  1
  C  C257  1  0.59716000  0.09088000  0.27490000  1
  C  C258  1  0.68544000  0.90812000  0.38960000  1
  C  C259  1  0.59356000  0.09188000  0.88960000  1
  C  C260  1  0.94154000  0.39492000  0.28640000  1
  C  C261  1  0.33646000  0.60508000  0.78640000  1
  C  C262  1  0.63958000  0.98924000  0.22022000  1
  C  C263  1  0.62882000  0.01076000  0.72022000  1
  C  C264  1  0.02930000  0.19820000  0.75800000  1
  C  C265  1  0.22750000  0.80180000  0.25800000  1
  C  C266  1  0.70135000  0.85270000  0.42830000  1
  C  C267  1  0.55405000  0.14730000  0.92830000  1
  C  C268  1  0.84096000  0.55968000  0.71080000  1
  C  C269  1  0.40064000  0.44032000  0.21080000  1
  C  C270  1  0.99416000  0.24408000  0.56370000  1
  C  C271  1  0.23824000  0.75592000  0.06370000  1
  C  C272  1  0.95364000  0.31212000  0.58500000  1
  C  C273  1  0.26576000  0.68788000  0.08500000  1
  C  C274  1  0.83176000  0.55228000  0.90575000  1
  C  C275  1  0.38404000  0.44772000  0.40575000  1
  C  C276  1  0.63327000  0.94706000  0.74560000  1
  C  C277  1  0.58033000  0.05294000  0.24560000  1
  C  C278  1  0.70178000  0.80804000  0.61812000  1
  C  C279  1  0.89609000  0.41942000  0.74140000  1
  C  C280  1  0.31551000  0.58058000  0.24140000  1
  C  C281  1  0.50982000  0.19196000  0.11812000  1
  C  C282  1  0.81243000  0.57314000  0.04590000  1
  C  C283  1  0.38557000  0.42686000  0.54590000  1
  C  C284  1  0.69828000  0.80124000  0.93110000  1
  C  C285  1  0.49952000  0.19876000  0.43110000  1
  C  C286  1  0.62149000  0.94342000  0.19453000  1
  C  C287  1  0.56491000  0.05658000  0.69453000  1
  C  C288  1  0.62221000  0.94138000  0.96130000  1
  C  C289  1  0.85924000  0.46732000  0.22782000  1
  C  C290  1  0.32656000  0.53268000  0.72782000  1
  C  C291  1  0.56359000  0.05862000  0.46130000  1
  C  C292  1  0.83879000  0.50282000  0.06270000  1
  C  C293  1  0.34161000  0.49718000  0.56270000  1
  C  C294  1  0.88414000  0.40792000  0.26067000  1
  C  C295  1  0.29206000  0.59208000  0.76067000  1
  C  C296  1  0.62409000  0.92662000  0.36630000  1
  C  C297  1  0.55071000  0.07338000  0.86630000  1
  C  C298  1  0.80358000  0.53984000  0.76350000  1
  C  C299  1  0.34342000  0.46016000  0.26350000  1
  C  C300  1  0.90733000  0.33074000  0.92790000  1
  C  C301  1  0.23807000  0.66926000  0.42790000  1
  C  C302  1  0.74467000  0.65266000  0.35595000  1
  C  C303  1  0.39733000  0.34734000  0.85595000  1
  C  C304  1  0.83065000  0.46950000  0.77930000  1
  C  C305  1  0.30015000  0.53050000  0.27930000  1
  C  C306  1  0.65542000  0.81636000  0.44226000  1
  C  C307  1  0.47178000  0.18364000  0.94226000  1
  C  C308  1  0.92677000  0.26126000  0.94470000  1
  C  C309  1  0.18803000  0.73874000  0.44470000  1
  C  C310  1  0.82287000  0.45886000  0.94509000  1
  C  C311  1  0.28173000  0.54114000  0.44509000  1
  C  C312  1  0.73461000  0.62118000  0.07072000  1
  C  C313  1  0.35579000  0.37882000  0.57072000  1
  C  C314  1  0.62324000  0.84252000  0.92560000  1
  C  C315  1  0.46576000  0.15748000  0.42560000  1
  C  C316  1  0.58528000  0.91284000  0.94230000  1
  C  C317  1  0.49812000  0.08716000  0.44230000  1
  C  C318  1  0.84408000  0.38544000  0.96297000  1
  C  C319  1  0.22952000  0.61456000  0.46297000  1
  C  C320  1  0.87928000  0.29964000  0.46816000  1
  C  C321  1  0.17892000  0.70036000  0.96816000  1
  C  C322  1  0.76244000  0.53032000  0.37265000  1
  C  C323  1  0.29276000  0.46968000  0.87265000  1
  C  C324  1  0.57633000  0.90134000  0.15003000  1
  C  C325  1  0.47767000  0.09866000  0.65003000  1
  C  C326  1  0.78488000  0.48184000  0.10350000  1
  C  C327  1  0.26672000  0.51816000  0.60350000  1
  C  C328  1  0.57854000  0.89012000  0.38038000  1
  C  C329  1  0.46866000  0.10988000  0.88038000  1
  C  C330  1  0.71766000  0.60048000  0.38808000  1
  C  C331  1  0.31814000  0.39952000  0.88808000  1
  C  C332  1  0.83044000  0.36812000  0.48478000  1
  C  C333  1  0.19856000  0.63188000  0.98478000  1
  C  C334  1  0.59539000  0.83442000  0.41929000  1
  C  C335  1  0.42981000  0.16558000  0.91929000  1
  C  C336  1  0.60566000  0.81308000  0.59338000  1
  C  C337  1  0.41874000  0.18692000  0.09338000  1
  C  C338  1  0.88398000  0.24464000  0.99690000  1
  C  C339  1  0.12862000  0.75536000  0.49690000  1
  Cu  Cu340  1  0.30972000  0.38056000  0.75000000  1
  Cu  Cu341  1  0.69028000  0.61944000  0.25000000  1
  Cu  Cu342  1  0.32280000  0.34258000  0.43257000  1
  Cu  Cu343  1  0.66538000  0.65742000  0.93257000  1
  Cu  Cu344  1  0.33435000  0.25322000  0.83228000  1
  Cu  Cu345  1  0.58757000  0.74678000  0.33228000  1
  Cu  Cu346  1  0.42246000  0.05264000  0.36623000  1
  Cu  Cu347  1  0.47510000  0.94736000  0.86623000  1
  Cu  Cu348  1  0.16004000  0.49028000  0.50078000  1
  Cu  Cu349  1  0.65032000  0.50972000  0.00078000  1
  Cu  Cu350  1  0.29664000  0.18636000  0.74663000  1
  Cu  Cu351  1  0.48300000  0.81364000  0.24663000  1
  Cu  Cu352  1  0.18187000  0.33836000  0.40653000  1
  Cu  Cu353  1  0.52023000  0.66164000  0.90653000  1
  Cu  Cu354  1  0.10776000  0.41338000  0.61800000  1
  Cu  Cu355  1  0.52114000  0.58662000  0.11800000  1
  Cu  Cu356  1  0.01327000  0.56472000  0.11623000  1
  Cu  Cu357  1  0.57799000  0.43528000  0.61623000  1
  Cu  Cu358  1  0.98673000  0.43528000  0.88377000  1
  Cu  Cu359  1  0.42201000  0.56472000  0.38377000  1
  Cu  Cu360  1  0.89224000  0.58662000  0.38200000  1
  Cu  Cu361  1  0.47886000  0.41338000  0.88200000  1
  Cu  Cu362  1  0.81813000  0.66164000  0.59347000  1
  Cu  Cu363  1  0.47977000  0.33836000  0.09347000  1
  Cu  Cu364  1  0.70336000  0.81364000  0.25337000  1
  Cu  Cu365  1  0.51700000  0.18636000  0.75337000  1
  Cu  Cu366  1  0.83996000  0.50972000  0.49922000  1
  Cu  Cu367  1  0.34968000  0.49028000  0.99922000  1
  Cu  Cu368  1  0.57754000  0.94736000  0.63377000  1
  Cu  Cu369  1  0.52490000  0.05264000  0.13377000  1
  Cu  Cu370  1  0.66565000  0.74678000  0.16772000  1
  Cu  Cu371  1  0.41243000  0.25322000  0.66772000  1
  Cu  Cu372  1  0.67720000  0.65742000  0.56743000  1
  Cu  Cu373  1  0.33462000  0.34258000  0.06743000  1
  H  H374  1  0.46600000  0.05900000  0.05950000  1
  H  H375  1  0.52500000  0.94100000  0.55950000  1
  H  H376  1  0.23350000  0.51800000  0.35420000  1
  H  H377  1  0.75150000  0.48200000  0.85420000  1
  H  H378  1  0.06030000  0.85780000  0.00930000  1
  H  H379  1  0.91810000  0.14220000  0.50930000  1
  H  H380  1  0.19130000  0.59340000  0.15850000  1
  H  H381  1  0.78470000  0.40660000  0.65850000  1
  H  H382  1  0.19840000  0.56520000  0.88540000  1
  H  H383  1  0.76360000  0.43480000  0.38540000  1
  H  H384  1  0.37500000  0.19040000  0.92960000  1
  H  H385  1  0.56540000  0.80960000  0.42960000  1
  H  H386  1  0.04140000  0.84460000  0.23970000  1
  H  H387  1  0.88600000  0.15540000  0.73970000  1
  H  H388  1  0.16310000  0.59600000  0.53890000  1
  H  H389  1  0.75910000  0.40400000  0.03890000  1
  H  H390  1  0.03910000  0.83360000  0.54370000  1
  H  H391  1  0.87270000  0.16640000  0.04370000  1
  H  H392  1  0.23960000  0.42600000  0.21180000  1
  H  H393  1  0.66560000  0.57400000  0.71180000  1
  H  H394  1  0.02790000  0.84920000  0.18400000  1
  H  H395  1  0.87710000  0.15080000  0.68400000  1
  H  H396  1  0.04940000  0.80340000  0.36950000  1
  H  H397  1  0.85280000  0.19660000  0.86950000  1
  H  H398  1  0.13750000  0.62340000  0.73430000  1
  H  H399  1  0.76090000  0.37660000  0.23430000  1
  H  H400  1  0.28260000  0.33180000  0.94030000  1
  H  H401  1  0.61440000  0.66820000  0.44030000  1
  H  H402  1  0.33420000  0.22100000  0.53230000  1
  H  H403  1  0.55520000  0.77900000  0.03230000  1
  H  H404  1  0.17920000  0.52420000  0.78900000  1
  H  H405  1  0.70340000  0.47580000  0.28900000  1
  H  H406  1  0.08190000  0.71040000  0.56670000  1
  H  H407  1  0.79230000  0.28960000  0.06670000  1
  H  H408  1  0.40050000  0.07000000  0.25720000  1
  H  H409  1  0.47050000  0.93000000  0.75720000  1
  H  H410  1  0.18770000  0.48440000  0.65380000  1
  H  H411  1  0.67210000  0.51560000  0.15380000  1
  H  H412  1  0.99180000  0.85360000  0.41670000  1
  H  H413  1  0.03120000  0.77480000  0.07890000  1
  H  H414  1  0.07910000  0.67900000  0.37790000  1
  H  H415  1  0.75810000  0.32100000  0.87790000  1
  H  H416  1  0.80600000  0.22520000  0.57890000  1
  H  H417  1  0.84540000  0.14640000  0.91670000  1
  H  H418  1  0.40560000  0.01200000  0.02660000  1
  H  H419  1  0.41760000  0.98800000  0.52660000  1
  H  H420  1  0.38640000  0.03600000  0.65900000  1
  H  H421  1  0.42240000  0.96400000  0.15900000  1
  H  H422  1  0.05890000  0.68980000  0.67190000  1
  H  H423  1  0.74870000  0.31020000  0.17190000  1
  H  H424  1  0.27700000  0.24680000  0.07640000  1
  H  H425  1  0.52380000  0.75320000  0.57640000  1
  H  H426  1  0.08460000  0.62800000  0.24870000  1
  H  H427  1  0.71260000  0.37200000  0.74870000  1
  H  H428  1  0.06350000  0.65920000  0.10670000  1
  H  H429  1  0.72270000  0.34080000  0.60670000  1
  H  H430  1  0.93510000  0.91180000  0.62880000  1
  H  H431  1  0.84690000  0.08820000  0.12880000  1
  H  H432  1  0.21600000  0.34320000  0.16580000  1
  H  H433  1  0.55920000  0.65680000  0.66580000  1
  H  H434  1  0.95970000  0.85000000  0.66666667  1
  H  H435  1  0.80970000  0.15000000  0.16670000  1
  H  H436  1  0.98630000  0.78220000  0.32090000  1
  H  H437  1  0.76850000  0.21780000  0.82090000  1
  H  H438  1  0.30980000  0.13320000  0.20790000  1
  H  H439  1  0.44300000  0.86680000  0.70790000  1
  H  H440  1  0.17820000  0.39280000  0.29890000  1
  H  H441  1  0.57100000  0.60720000  0.79890000  1
  H  H442  1  0.95870000  0.83060000  0.92350000  1
  H  H443  1  0.78930000  0.16940000  0.42350000  1
  H  H444  1  0.99060000  0.74880000  0.80950000  1
  H  H445  1  0.73940000  0.25120000  0.30950000  1
  H  H446  1  0.06570000  0.58860000  0.95030000  1
  H  H447  1  0.65430000  0.41140000  0.45030000  1
  H  H448  1  0.91380000  0.89140000  0.96320000  1
  H  H449  1  0.15340000  0.41220000  0.98180000  1
  H  H450  1  0.56560000  0.58780000  0.48180000  1
  H  H451  1  0.80520000  0.10860000  0.46320000  1
  H  H452  1  0.06530000  0.58720000  0.43480000  1
  H  H453  1  0.65250000  0.41280000  0.93480000  1
  H  H454  1  0.94420000  0.80280000  0.17190000  1
  H  H455  1  0.74700000  0.19720000  0.67190000  1
  H  H456  1  0.00210000  0.66960000  0.66200000  1
  H  H457  1  0.67170000  0.33040000  0.16200000  1
  H  H458  1  0.23340000  0.19640000  0.52080000  1
  H  H459  1  0.42980000  0.80360000  0.02080000  1
  H  H460  1  0.92320000  0.81440000  0.50440000  1
  H  H461  1  0.73760000  0.18560000  0.00440000  1
  H  H462  1  0.20320000  0.25100000  0.31650000  1
  H  H463  1  0.45420000  0.74900000  0.81650000  1
  H  H464  1  0.97020000  0.71480000  0.95480000  1
  H  H465  1  0.68500000  0.28520000  0.45480000  1
  H  H466  1  0.00460000  0.64400000  0.86800000  1
  H  H467  1  0.64860000  0.35600000  0.36800000  1
  H  H468  1  0.02410000  0.59480000  0.33600000  1
  H  H469  1  0.61890000  0.40520000  0.83600000  1
  H  H470  1  0.28430000  0.06720000  0.62070000  1
  H  H471  1  0.35150000  0.93280000  0.12070000  1
  H  H472  1  0.92580000  0.78400000  0.78250000  1
  H  H473  1  0.70980000  0.21600000  0.28250000  1
  H  H474  1  0.05020000  0.53120000  0.98510000  1
  H  H475  1  0.58140000  0.46880000  0.48510000  1
  H  H476  1  0.21100000  0.19720000  0.05080000  1
  H  H477  1  0.40820000  0.80280000  0.55080000  1
  H  H478  1  0.26480000  0.08600000  0.42020000  1
  H  H479  1  0.35080000  0.91400000  0.92020000  1
  H  H480  1  0.28860000  0.02240000  0.01240000  1
  H  H481  1  0.31100000  0.97760000  0.51240000  1
  H  H482  1  0.16770000  0.26300000  0.20710000  1
  H  H483  1  0.43070000  0.73700000  0.70710000  1
  H  H484  1  0.82630000  0.94280000  0.59180000  1
  H  H485  1  0.76910000  0.05720000  0.09180000  1
  H  H486  1  0.19390000  0.19440000  0.86700000  1
  H  H487  1  0.38830000  0.80560000  0.36700000  1
  H  H488  1  0.21320000  0.14080000  0.55470000  1
  H  H489  1  0.35400000  0.85920000  0.05470000  1
  H  H490  1  0.82600000  0.91020000  0.81090000  1
  H  H491  1  0.73620000  0.08980000  0.31090000  1
  H  H492  1  0.84230000  0.87740000  0.06280000  1
  H  H493  1  0.24310000  0.07580000  0.79500000  1
  H  H494  1  0.31890000  0.92420000  0.29500000  1
  H  H495  1  0.71970000  0.12260000  0.56280000  1
  H  H496  1  0.78440000  0.99020000  0.25110000  1
  H  H497  1  0.77460000  0.00980000  0.75110000  1
  H  H498  1  0.88890000  0.77760000  0.69570000  1
  H  H499  1  0.66650000  0.22240000  0.19570000  1
  H  H500  1  0.20320000  0.14460000  0.17540000  1
  H  H501  1  0.34780000  0.85540000  0.67540000  1
  H  H502  1  0.90950000  0.72420000  0.56110000  1
  H  H503  1  0.63370000  0.27580000  0.06110000  1
  H  H504  1  0.98340000  0.56980000  0.70860000  1
  H  H505  1  0.55320000  0.43020000  0.20860000  1
  H  H506  1  0.90080000  0.73020000  0.35950000  1
  H  H507  1  0.63100000  0.26980000  0.85950000  1
  H  H508  1  0.21570000  0.09060000  0.02050000  1
  H  H509  1  0.30630000  0.90940000  0.52050000  1
  H  H510  1  0.04250000  0.43680000  0.09180000  1
  H  H511  1  0.47930000  0.56320000  0.59180000  1
  H  H512  1  0.02570000  0.46960000  0.76250000  1
  H  H513  1  0.49530000  0.53040000  0.26250000  1
  H  H514  1  0.13190000  0.25520000  0.79190000  1
  H  H515  1  0.38710000  0.74480000  0.29190000  1
  H  H516  1  0.93730000  0.64300000  0.02600000  1
  H  H517  1  0.58030000  0.35700000  0.52600000  1
  H  H518  1  0.06270000  0.35700000  0.97400000  1
  H  H519  1  0.41970000  0.64300000  0.47400000  1
  H  H520  1  0.86810000  0.74480000  0.20810000  1
  H  H521  1  0.61290000  0.25520000  0.70810000  1
  H  H522  1  0.97430000  0.53040000  0.23750000  1
  H  H523  1  0.50470000  0.46960000  0.73750000  1
  H  H524  1  0.95750000  0.56320000  0.90820000  1
  H  H525  1  0.52070000  0.43680000  0.40820000  1
  H  H526  1  0.78430000  0.90940000  0.97950000  1
  H  H527  1  0.69370000  0.09060000  0.47950000  1
  H  H528  1  0.09920000  0.26980000  0.64050000  1
  H  H529  1  0.36900000  0.73020000  0.14050000  1
  H  H530  1  0.01660000  0.43020000  0.29140000  1
  H  H531  1  0.44680000  0.56980000  0.79140000  1
  H  H532  1  0.09050000  0.27580000  0.43890000  1
  H  H533  1  0.36630000  0.72420000  0.93890000  1
  H  H534  1  0.79680000  0.85540000  0.82460000  1
  H  H535  1  0.65220000  0.14460000  0.32460000  1
  H  H536  1  0.11110000  0.22240000  0.30430000  1
  H  H537  1  0.33350000  0.77760000  0.80430000  1
  H  H538  1  0.21560000  0.00980000  0.74890000  1
  H  H539  1  0.22540000  0.99020000  0.24890000  1
  H  H540  1  0.75690000  0.92420000  0.20500000  1
  H  H541  1  0.15770000  0.12260000  0.93720000  1
  H  H542  1  0.28030000  0.87740000  0.43720000  1
  H  H543  1  0.68110000  0.07580000  0.70500000  1
  H  H544  1  0.17400000  0.08980000  0.18910000  1
  H  H545  1  0.26380000  0.91020000  0.68910000  1
  H  H546  1  0.78680000  0.85920000  0.44530000  1
  H  H547  1  0.64600000  0.14080000  0.94530000  1
  H  H548  1  0.80610000  0.80560000  0.13300000  1
  H  H549  1  0.61170000  0.19440000  0.63300000  1
  H  H550  1  0.17370000  0.05720000  0.40820000  1
  H  H551  1  0.23090000  0.94280000  0.90820000  1
  H  H552  1  0.83230000  0.73700000  0.79290000  1
  H  H553  1  0.56930000  0.26300000  0.29290000  1
  H  H554  1  0.71140000  0.97760000  0.98760000  1
  H  H555  1  0.68900000  0.02240000  0.48760000  1
  H  H556  1  0.73520000  0.91400000  0.57980000  1
  H  H557  1  0.64920000  0.08600000  0.07980000  1
  H  H558  1  0.78900000  0.80280000  0.94920000  1
  H  H559  1  0.59180000  0.19720000  0.44920000  1
  H  H560  1  0.94980000  0.46880000  0.01490000  1
  H  H561  1  0.41860000  0.53120000  0.51490000  1
  H  H562  1  0.07420000  0.21600000  0.21750000  1
  H  H563  1  0.29020000  0.78400000  0.71750000  1
  H  H564  1  0.71570000  0.93280000  0.37930000  1
  H  H565  1  0.64850000  0.06720000  0.87930000  1
  H  H566  1  0.97590000  0.40520000  0.66400000  1
  H  H567  1  0.38110000  0.59480000  0.16400000  1
  H  H568  1  0.99540000  0.35600000  0.13200000  1
  H  H569  1  0.35140000  0.64400000  0.63200000  1
  H  H570  1  0.02980000  0.28520000  0.04520000  1
  H  H571  1  0.31500000  0.71480000  0.54520000  1
  H  H572  1  0.79680000  0.74900000  0.68350000  1
  H  H573  1  0.54580000  0.25100000  0.18350000  1
  H  H574  1  0.07680000  0.18560000  0.49560000  1
  H  H575  1  0.26240000  0.81440000  0.99560000  1
  H  H576  1  0.76660000  0.80360000  0.47920000  1
  H  H577  1  0.57020000  0.19640000  0.97920000  1
  H  H578  1  0.99790000  0.33040000  0.33800000  1
  H  H579  1  0.32830000  0.66960000  0.83800000  1
  H  H580  1  0.05580000  0.19720000  0.82810000  1
  H  H581  1  0.25300000  0.80280000  0.32810000  1
  H  H582  1  0.93470000  0.41280000  0.56520000  1
  H  H583  1  0.34750000  0.58720000  0.06520000  1
  H  H584  1  0.84660000  0.58780000  0.01820000  1
  H  H585  1  0.08620000  0.10860000  0.03680000  1
  H  H586  1  0.19480000  0.89140000  0.53680000  1
  H  H587  1  0.43440000  0.41220000  0.51820000  1
  H  H588  1  0.93430000  0.41140000  0.04970000  1
  H  H589  1  0.34570000  0.58860000  0.54970000  1
  H  H590  1  0.00940000  0.25120000  0.19050000  1
  H  H591  1  0.26060000  0.74880000  0.69050000  1
  H  H592  1  0.04130000  0.16940000  0.07650000  1
  H  H593  1  0.21070000  0.83060000  0.57650000  1
  H  H594  1  0.82180000  0.60720000  0.70110000  1
  H  H595  1  0.42900000  0.39280000  0.20110000  1
  H  H596  1  0.69020000  0.86680000  0.79210000  1
  H  H597  1  0.55700000  0.13320000  0.29210000  1
  H  H598  1  0.01370000  0.21780000  0.67910000  1
  H  H599  1  0.23150000  0.78220000  0.17910000  1
  H  H600  1  0.04030000  0.15000000  0.33333333  1
  H  H601  1  0.19030000  0.85000000  0.83330000  1
  H  H602  1  0.78400000  0.65680000  0.83420000  1
  H  H603  1  0.44080000  0.34320000  0.33420000  1
  H  H604  1  0.06490000  0.08820000  0.37120000  1
  H  H605  1  0.15310000  0.91180000  0.87120000  1
  H  H606  1  0.93650000  0.34080000  0.89330000  1
  H  H607  1  0.27730000  0.65920000  0.39330000  1
  H  H608  1  0.91540000  0.37200000  0.75130000  1
  H  H609  1  0.28740000  0.62800000  0.25130000  1
  H  H610  1  0.72300000  0.75320000  0.92360000  1
  H  H611  1  0.47620000  0.24680000  0.42360000  1
  H  H612  1  0.94110000  0.31020000  0.32810000  1
  H  H613  1  0.25130000  0.68980000  0.82810000  1
  H  H614  1  0.61360000  0.96400000  0.34100000  1
  H  H615  1  0.57760000  0.03600000  0.84100000  1
  H  H616  1  0.59440000  0.98800000  0.97340000  1
  H  H617  1  0.58240000  0.01200000  0.47340000  1
  H  H618  1  0.92090000  0.32100000  0.62210000  1
  H  H619  1  0.96880000  0.22520000  0.92110000  1
  H  H620  1  0.00820000  0.14640000  0.58330000  1
  H  H621  1  0.15460000  0.85360000  0.08330000  1
  H  H622  1  0.19400000  0.77480000  0.42110000  1
  H  H623  1  0.24190000  0.67900000  0.12210000  1
  H  H624  1  0.81230000  0.51560000  0.34620000  1
  H  H625  1  0.32790000  0.48440000  0.84620000  1
  H  H626  1  0.59950000  0.93000000  0.74280000  1
  H  H627  1  0.52950000  0.07000000  0.24280000  1
  H  H628  1  0.91810000  0.28960000  0.43330000  1
  H  H629  1  0.20770000  0.71040000  0.93330000  1
  H  H630  1  0.82080000  0.47580000  0.21100000  1
  H  H631  1  0.29660000  0.52420000  0.71100000  1
  H  H632  1  0.66580000  0.77900000  0.46770000  1
  H  H633  1  0.44480000  0.22100000  0.96770000  1
  H  H634  1  0.71740000  0.66820000  0.05970000  1
  H  H635  1  0.38560000  0.33180000  0.55970000  1
  H  H636  1  0.86250000  0.37660000  0.26570000  1
  H  H637  1  0.23910000  0.62340000  0.76570000  1
  H  H638  1  0.95060000  0.19660000  0.63050000  1
  H  H639  1  0.14720000  0.80340000  0.13050000  1
  H  H640  1  0.97210000  0.15080000  0.81600000  1
  H  H641  1  0.12290000  0.84920000  0.31600000  1
  H  H642  1  0.76040000  0.57400000  0.78820000  1
  H  H643  1  0.33440000  0.42600000  0.28820000  1
  H  H644  1  0.96090000  0.16640000  0.45630000  1
  H  H645  1  0.12730000  0.83360000  0.95630000  1
  H  H646  1  0.83690000  0.40400000  0.46110000  1
  H  H647  1  0.24090000  0.59600000  0.96110000  1
  H  H648  1  0.95860000  0.15540000  0.76030000  1
  H  H649  1  0.11400000  0.84460000  0.26030000  1
  H  H650  1  0.62500000  0.80960000  0.07040000  1
  H  H651  1  0.43460000  0.19040000  0.57040000  1
  H  H652  1  0.80160000  0.43480000  0.11460000  1
  H  H653  1  0.23640000  0.56520000  0.61460000  1
  H  H654  1  0.80870000  0.40660000  0.84150000  1
  H  H655  1  0.21530000  0.59340000  0.34150000  1
  H  H656  1  0.93970000  0.14220000  0.99070000  1
  H  H657  1  0.08190000  0.85780000  0.49070000  1
  H  H658  1  0.76650000  0.48200000  0.64580000  1
  H  H659  1  0.24850000  0.51800000  0.14580000  1
  H  H660  1  0.53400000  0.94100000  0.94050000  1
  H  H661  1  0.47500000  0.05900000  0.44050000  1
  N  N662  1  0.25069000  0.49054000  0.04414000  1
  N  N663  1  0.74123000  0.50946000  0.54414000  1
  N  N664  1  0.07673000  0.82414000  0.51230000  1
  N  N665  1  0.90087000  0.17586000  0.01230000  1
  N  N666  1  0.20803000  0.54974000  0.16830000  1
  N  N667  1  0.75777000  0.45026000  0.66830000  1
  N  N668  1  0.34379000  0.25394000  0.40746000  1
  N  N669  1  0.59773000  0.74606000  0.90746000  1
  N  N670  1  0.24478000  0.43000000  0.06917000  1
  N  N671  1  0.67478000  0.57000000  0.56917000  1
  N  N672  1  0.37304000  0.15296000  0.82784000  1
  N  N673  1  0.52600000  0.84704000  0.32784000  1
  N  N674  1  0.30041000  0.29352000  0.66994000  1
  N  N675  1  0.59393000  0.70648000  0.16994000  1
  N  N676  1  0.42859000  0.03702000  0.83751000  1
  N  N677  1  0.46561000  0.96298000  0.33751000  1
  N  N678  1  0.36922000  0.14652000  0.38935000  1
  N  N679  1  0.51574000  0.85348000  0.88935000  1
  N  N680  1  0.01980000  0.83640000  0.21880000  1
  N  N681  1  0.85620000  0.16360000  0.71880000  1
  N  N682  1  0.01717000  0.81146000  0.40320000  1
  N  N683  1  0.82863000  0.18854000  0.90320000  1
  N  N684  1  0.28074000  0.25778000  0.39172000  1
  N  N685  1  0.53852000  0.74222000  0.89172000  1
  N  N686  1  0.34445000  0.12540000  0.79893000  1
  N  N687  1  0.46985000  0.87460000  0.29893000  1
  N  N688  1  0.21753000  0.37724000  0.80081000  1
  N  N689  1  0.59477000  0.62276000  0.30081000  1
  N  N690  1  0.25574000  0.25878000  0.69812000  1
  N  N691  1  0.51452000  0.74122000  0.19812000  1
  N  N692  1  0.22471000  0.32054000  0.83650000  1
  N  N693  1  0.54525000  0.67946000  0.33650000  1
  N  N694  1  0.12317000  0.51722000  0.08607000  1
  N  N695  1  0.64039000  0.48278000  0.58607000  1
  N  N696  1  0.03710000  0.66200000  0.67800000  1
  N  N697  1  0.69910000  0.33800000  0.17800000  1
  N  N698  1  0.92912000  0.87636000  0.64680000  1
  N  N699  1  0.80548000  0.12364000  0.14680000  1
  N  N700  1  0.18262000  0.34952000  0.65455000  1
  N  N701  1  0.53214000  0.65048000  0.15455000  1
  N  N702  1  0.08225000  0.54510000  0.96050000  1
  N  N703  1  0.62735000  0.45490000  0.46050000  1
  N  N704  1  0.93039000  0.84762000  0.95680000  1
  N  N705  1  0.77801000  0.15238000  0.45680000  1
  N  N706  1  0.94971000  0.75098000  0.80340000  1
  N  N707  1  0.70069000  0.24902000  0.30340000  1
  N  N708  1  0.24111000  0.16358000  0.54570000  1
  N  N709  1  0.40469000  0.83642000  0.04570000  1
  N  N710  1  0.05128000  0.52862000  0.54694000  1
  N  N711  1  0.57990000  0.47138000  0.04694000  1
  N  N712  1  0.26370000  0.06620000  0.02140000  1
  N  N713  1  0.32990000  0.93380000  0.52140000  1
  N  N714  1  0.09683000  0.39264000  0.85301000  1
  N  N715  1  0.48947000  0.60736000  0.35301000  1
  N  N716  1  0.07743000  0.40868000  0.41044000  1
  N  N717  1  0.48611000  0.59132000  0.91044000  1
  N  N718  1  0.02815000  0.49188000  0.59433000  1
  N  N719  1  0.52003000  0.50812000  0.09433000  1
  N  N720  1  0.20560000  0.10540000  0.19140000  1
  N  N721  1  0.31100000  0.89460000  0.69140000  1
  N  N722  1  0.79440000  0.89460000  0.80860000  1
  N  N723  1  0.68900000  0.10540000  0.30860000  1
  N  N724  1  0.97185000  0.50812000  0.40567000  1
  N  N725  1  0.47997000  0.49188000  0.90567000  1
  N  N726  1  0.92257000  0.59132000  0.58956000  1
  N  N727  1  0.51389000  0.40868000  0.08956000  1
  N  N728  1  0.90317000  0.60736000  0.14699000  1
  N  N729  1  0.51053000  0.39264000  0.64699000  1
  N  N730  1  0.73630000  0.93380000  0.97860000  1
  N  N731  1  0.67010000  0.06620000  0.47860000  1
  N  N732  1  0.94872000  0.47138000  0.45306000  1
  N  N733  1  0.42010000  0.52862000  0.95306000  1
  N  N734  1  0.75889000  0.83642000  0.45430000  1
  N  N735  1  0.59531000  0.16358000  0.95430000  1
  N  N736  1  0.05029000  0.24902000  0.19660000  1
  N  N737  1  0.29931000  0.75098000  0.69660000  1
  N  N738  1  0.06961000  0.15238000  0.04320000  1
  N  N739  1  0.22199000  0.84762000  0.54320000  1
  N  N740  1  0.91775000  0.45490000  0.03950000  1
  N  N741  1  0.37265000  0.54510000  0.53950000  1
  N  N742  1  0.81738000  0.65048000  0.34545000  1
  N  N743  1  0.46786000  0.34952000  0.84545000  1
  N  N744  1  0.07088000  0.12364000  0.35320000  1
  N  N745  1  0.19452000  0.87636000  0.85320000  1
  N  N746  1  0.96290000  0.33800000  0.32200000  1
  N  N747  1  0.30090000  0.66200000  0.82200000  1
  N  N748  1  0.87683000  0.48278000  0.91393000  1
  N  N749  1  0.35961000  0.51722000  0.41393000  1
  N  N750  1  0.77529000  0.67946000  0.16350000  1
  N  N751  1  0.45475000  0.32054000  0.66350000  1
  N  N752  1  0.74426000  0.74122000  0.30188000  1
  N  N753  1  0.48548000  0.25878000  0.80188000  1
  N  N754  1  0.78247000  0.62276000  0.19919000  1
  N  N755  1  0.40523000  0.37724000  0.69919000  1
  N  N756  1  0.65555000  0.87460000  0.20107000  1
  N  N757  1  0.53015000  0.12540000  0.70107000  1
  N  N758  1  0.71926000  0.74222000  0.60828000  1
  N  N759  1  0.46148000  0.25778000  0.10828000  1
  N  N760  1  0.98283000  0.18854000  0.59680000  1
  N  N761  1  0.17137000  0.81146000  0.09680000  1
  N  N762  1  0.98020000  0.16360000  0.78120000  1
  N  N763  1  0.14380000  0.83640000  0.28120000  1
  N  N764  1  0.63078000  0.85348000  0.61065000  1
  N  N765  1  0.48426000  0.14652000  0.11065000  1
  N  N766  1  0.57141000  0.96298000  0.16249000  1
  N  N767  1  0.53439000  0.03702000  0.66249000  1
  N  N768  1  0.69959000  0.70648000  0.33006000  1
  N  N769  1  0.40607000  0.29352000  0.83006000  1
  N  N770  1  0.62696000  0.84704000  0.17216000  1
  N  N771  1  0.47400000  0.15296000  0.67216000  1
  N  N772  1  0.75522000  0.57000000  0.93083000  1
  N  N773  1  0.32522000  0.43000000  0.43083000  1
  N  N774  1  0.65621000  0.74606000  0.59254000  1
  N  N775  1  0.40227000  0.25394000  0.09254000  1
  N  N776  1  0.79197000  0.45026000  0.83170000  1
  N  N777  1  0.24223000  0.54974000  0.33170000  1
  N  N778  1  0.92327000  0.17586000  0.48770000  1
  N  N779  1  0.09913000  0.82414000  0.98770000  1
  N  N780  1  0.74931000  0.50946000  0.95586000  1
  N  N781  1  0.25877000  0.49054000  0.45586000  1
