# generated using pymatgen
data_Ce2U3H6(C5O4)6
_symmetry_space_group_name_H-M   'P 1'
_cell_length_a   10.92290000
_cell_length_b   11.53710000
_cell_length_c   13.45160000
_cell_angle_alpha   69.50200000
_cell_angle_beta   80.04900000
_cell_angle_gamma   62.25300000
_symmetry_Int_Tables_number   1
_chemical_formula_structural   Ce2U3H6(C5O4)6
_chemical_formula_sum   'Ce2 U3 H6 C30 O24'
_cell_volume   1405.14395892
_cell_formula_units_Z   1
loop_
 _symmetry_equiv_pos_site_id
 _symmetry_equiv_pos_as_xyz
  1  'x, y, z'
loop_
 _atom_site_type_symbol
 _atom_site_label
 _atom_site_symmetry_multiplicity
 _atom_site_fract_x
 _atom_site_fract_y
 _atom_site_fract_z
 _atom_site_occupancy
  Ce  Ce0  1  0.37791000  0.78523000  0.22467000  1
  Ce  Ce1  1  0.62209000  0.21477000  0.77533000  1
  U  U2  1  0.00000000  0.50000000  0.50000000  1
  U  U3  1  0.36798000  0.29810000  0.16675000  1
  U  U4  1  0.63202000  0.70190000  0.83325000  1
  H  H5  1  0.09938000  0.36268000  0.95193000  1
  H  H6  1  0.18669000  0.09736000  0.73039000  1
  H  H7  1  0.29301000  0.00075000  0.58045000  1
  H  H8  1  0.70699000  0.99925000  0.41955000  1
  H  H9  1  0.81331000  0.90264000  0.26961000  1
  H  H10  1  0.90062000  0.63732000  0.04807000  1
  C  C11  1  0.00990000  0.33730000  0.84510000  1
  C  C12  1  0.03500000  0.25740000  0.77950000  1
  C  C13  1  0.07910000  0.72340000  0.28320000  1
  C  C14  1  0.11820000  0.31110000  0.90400000  1
  C  C15  1  0.12640000  0.54500000  0.15050000  1
  C  C16  1  0.16950000  0.15460000  0.77340000  1
  C  C17  1  0.25140000  0.21380000  0.89580000  1
  C  C18  1  0.25560000  0.25450000  0.49600000  1
  C  C19  1  0.27810000  0.13430000  0.82840000  1
  C  C20  1  0.35690000  0.19810000  0.96240000  1
  C  C21  1  0.37860000  0.00020000  0.54780000  1
  C  C22  1  0.38450000  0.12460000  0.49660000  1
  C  C23  1  0.41940000  0.02760000  0.80950000  1
  C  C24  1  0.47480000  0.74640000  0.61490000  1
  C  C25  1  0.49250000  0.87440000  0.55370000  1
  C  C26  1  0.50750000  0.12560000  0.44630000  1
  C  C27  1  0.52520000  0.25360000  0.38510000  1
  C  C28  1  0.58060000  0.97240000  0.19050000  1
  C  C29  1  0.61550000  0.87540000  0.50340000  1
  C  C30  1  0.62140000  0.99980000  0.45220000  1
  C  C31  1  0.64310000  0.80190000  0.03760000  1
  C  C32  1  0.72190000  0.86570000  0.17160000  1
  C  C33  1  0.74440000  0.74550000  0.50400000  1
  C  C34  1  0.74860000  0.78620000  0.10420000  1
  C  C35  1  0.83050000  0.84540000  0.22660000  1
  C  C36  1  0.87360000  0.45500000  0.84950000  1
  C  C37  1  0.88180000  0.68890000  0.09600000  1
  C  C38  1  0.92090000  0.27660000  0.71680000  1
  C  C39  1  0.96500000  0.74260000  0.22050000  1
  C  C40  1  0.99010000  0.66270000  0.15490000  1
  O  O41  1  0.09950000  0.64330000  0.37740000  1
  O  O42  1  0.14170000  0.47190000  0.09450000  1
  O  O43  1  0.14290000  0.79380000  0.23990000  1
  O  O44  1  0.14300000  0.24960000  0.52240000  1
  O  O45  1  0.22600000  0.51730000  0.20420000  1
  O  O46  1  0.26110000  0.36830000  0.46860000  1
  O  O47  1  0.31040000  0.21670000  0.05370000  1
  O  O48  1  0.42380000  0.70320000  0.57000000  1
  O  O49  1  0.42800000  0.90880000  0.82710000  1
  O  O50  1  0.47620000  0.17280000  0.93270000  1
  O  O51  1  0.48330000  0.94000000  0.22600000  1
  O  O52  1  0.49350000  0.30790000  0.28670000  1
  O  O53  1  0.50650000  0.69210000  0.71330000  1
  O  O54  1  0.51670000  0.06000000  0.77400000  1
  O  O55  1  0.52380000  0.82720000  0.06730000  1
  O  O56  1  0.57200000  0.09120000  0.17290000  1
  O  O57  1  0.57620000  0.29680000  0.43000000  1
  O  O58  1  0.68960000  0.78330000  0.94630000  1
  O  O59  1  0.73890000  0.63170000  0.53140000  1
  O  O60  1  0.77400000  0.48270000  0.79580000  1
  O  O61  1  0.85700000  0.75040000  0.47760000  1
  O  O62  1  0.85710000  0.20620000  0.76010000  1
  O  O63  1  0.85830000  0.52810000  0.90550000  1
  O  O64  1  0.90050000  0.35670000  0.62260000  1
