# generated using pymatgen
data_NiH20C30N2O5
_symmetry_space_group_name_H-M   'P 1'
_cell_length_a   11.62400000
_cell_length_b   13.39500000
_cell_length_c   21.37800000
_cell_angle_alpha   108.23000000
_cell_angle_beta   96.32000000
_cell_angle_gamma   103.03000000
_symmetry_Int_Tables_number   1
_chemical_formula_structural   NiH20C30N2O5
_chemical_formula_sum   'Ni4 H80 C120 N8 O20'
_cell_volume   3020.91543975
_cell_formula_units_Z   4
loop_
 _symmetry_equiv_pos_site_id
 _symmetry_equiv_pos_as_xyz
  1  'x, y, z'
loop_
 _atom_site_type_symbol
 _atom_site_label
 _atom_site_symmetry_multiplicity
 _atom_site_fract_x
 _atom_site_fract_y
 _atom_site_fract_z
 _atom_site_occupancy
  Ni  Ni0  1  0.09574000  0.69972000  0.38788000  1
  Ni  Ni1  1  0.48261000  0.63682000  0.08464000  1
  Ni  Ni2  1  0.51739000  0.36318000  0.91536000  1
  Ni  Ni3  1  0.90426000  0.30028000  0.61212000  1
  H  H4  1  0.00710000  0.44440000  0.53670000  1
  H  H5  1  0.00840000  0.82060000  0.00390000  1
  H  H6  1  0.02420000  0.89720000  0.81180000  1
  H  H7  1  0.03760000  0.50840000  0.73370000  1
  H  H8  1  0.05360000  0.19460000  0.34310000  1
  H  H9  1  0.06350000  0.57030000  0.84690000  1
  H  H10  1  0.06410000  0.37210000  0.35520000  1
  H  H11  1  0.07430000  0.73760000  0.16280000  1
  H  H12  1  0.09720000  0.79160000  0.27580000  1
  H  H13  1  0.11670000  0.07060000  0.82720000  1
  H  H14  1  0.11680000  0.25410000  0.18960000  1
  H  H15  1  0.11700000  0.69930000  0.58900000  1
  H  H16  1  0.13570000  0.70790000  0.70080000  1
  H  H17  1  0.13590000  0.59790000  0.95580000  1
  H  H18  1  0.14440000  0.65680000  0.06930000  1
  H  H19  1  0.14820000  0.96970000  0.00530000  1
  H  H20  1  0.15040000  0.28570000  0.99080000  1
  H  H21  1  0.17410000  0.32680000  0.65190000  1
  H  H22  1  0.17840000  0.50190000  0.50120000  1
  H  H23  1  0.21470000  0.41330000  0.19090000  1
  H  H24  1  0.21760000  0.04730000  0.18870000  1
  H  H25  1  0.26020000  0.22880000  0.83680000  1
  H  H26  1  0.28980000  0.91390000  0.12350000  1
  H  H27  1  0.29050000  0.43450000  0.99000000  1
  H  H28  1  0.29390000  0.83630000  0.91190000  1
  H  H29  1  0.31030000  0.06160000  0.98920000  1
  H  H30  1  0.31920000  0.97840000  0.34820000  1
  H  H31  1  0.34020000  0.72160000  0.96540000  1
  H  H32  1  0.35060000  0.64950000  0.74050000  1
  H  H33  1  0.35080000  0.38560000  0.61980000  1
  H  H34  1  0.35300000  0.56000000  0.18420000  1
  H  H35  1  0.37330000  0.61190000  0.51480000  1
  H  H36  1  0.38110000  0.23480000  0.29660000  1
  H  H37  1  0.39100000  0.41560000  0.31160000  1
  H  H38  1  0.39170000  0.52580000  0.79140000  1
  H  H39  1  0.40370000  0.84900000  0.28470000  1
  H  H40  1  0.42520000  0.92450000  0.63200000  1
  H  H41  1  0.44840000  0.21740000  0.99260000  1
  H  H42  1  0.44850000  0.93220000  0.74350000  1
  H  H43  1  0.45980000  0.34810000  0.53140000  1
  H  H44  1  0.54020000  0.65190000  0.46860000  1
  H  H45  1  0.55150000  0.06780000  0.25650000  1
  H  H46  1  0.55160000  0.78260000  0.00740000  1
  H  H47  1  0.57480000  0.07550000  0.36800000  1
  H  H48  1  0.59630000  0.15100000  0.71530000  1
  H  H49  1  0.60830000  0.47420000  0.20860000  1
  H  H50  1  0.60900000  0.58440000  0.68840000  1
  H  H51  1  0.61890000  0.76520000  0.70340000  1
  H  H52  1  0.62670000  0.38810000  0.48520000  1
  H  H53  1  0.64700000  0.44000000  0.81580000  1
  H  H54  1  0.64920000  0.61440000  0.38020000  1
  H  H55  1  0.64940000  0.35050000  0.25950000  1
  H  H56  1  0.65980000  0.27840000  0.03460000  1
  H  H57  1  0.68080000  0.02160000  0.65180000  1
  H  H58  1  0.68970000  0.93840000  0.01080000  1
  H  H59  1  0.70610000  0.16370000  0.08810000  1
  H  H60  1  0.70950000  0.56550000  0.01000000  1
  H  H61  1  0.71020000  0.08610000  0.87650000  1
  H  H62  1  0.73980000  0.77120000  0.16320000  1
  H  H63  1  0.78240000  0.95270000  0.81130000  1
  H  H64  1  0.78530000  0.58670000  0.80910000  1
  H  H65  1  0.82160000  0.49810000  0.49880000  1
  H  H66  1  0.82590000  0.67320000  0.34810000  1
  H  H67  1  0.84960000  0.71430000  0.00920000  1
  H  H68  1  0.85180000  0.03030000  0.99470000  1
  H  H69  1  0.85560000  0.34320000  0.93070000  1
  H  H70  1  0.86410000  0.40210000  0.04420000  1
  H  H71  1  0.86430000  0.29210000  0.29920000  1
  H  H72  1  0.88300000  0.30070000  0.41100000  1
  H  H73  1  0.88320000  0.74590000  0.81040000  1
  H  H74  1  0.88330000  0.92940000  0.17280000  1
  H  H75  1  0.90280000  0.20840000  0.72420000  1
  H  H76  1  0.92570000  0.26240000  0.83720000  1
  H  H77  1  0.93590000  0.62790000  0.64480000  1
  H  H78  1  0.93650000  0.42970000  0.15310000  1
  H  H79  1  0.94640000  0.80540000  0.65690000  1
  H  H80  1  0.96240000  0.49160000  0.26630000  1
  H  H81  1  0.97580000  0.10280000  0.18820000  1
  H  H82  1  0.99160000  0.17940000  0.99610000  1
  H  H83  1  0.99290000  0.55560000  0.46330000  1
  C  C84  1  0.00120000  0.53730000  0.06950000  1
  C  C85  1  0.00650000  0.57640000  0.14200000  1
  C  C86  1  0.01090000  0.83500000  0.96420000  1
  C  C87  1  0.01230000  0.45880000  0.75490000  1
  C  C88  1  0.02140000  0.88160000  0.85120000  1
  C  C89  1  0.02870000  0.49620000  0.82300000  1
  C  C90  1  0.05260000  0.68520000  0.18260000  1
  C  C91  1  0.06350000  0.20950000  0.14980000  1
  C  C92  1  0.06690000  0.71740000  0.25080000  1
  C  C93  1  0.07050000  0.23560000  0.09250000  1
  C  C94  1  0.07680000  0.43000000  0.55310000  1
  C  C95  1  0.08130000  0.55740000  0.97350000  1
  C  C96  1  0.08550000  0.59410000  0.04160000  1
  C  C97  1  0.09530000  0.92520000  0.96530000  1
  C  C98  1  0.10310000  0.95080000  0.90950000  1
  C  C99  1  0.12160000  0.23830000  0.33580000  1
  C  C100  1  0.12910000  0.34500000  0.34460000  1
  C  C101  1  0.16250000  0.33090000  0.09020000  1
  C  C102  1  0.17400000  0.36170000  0.62060000  1
  C  C103  1  0.17980000  0.46420000  0.53100000  1
  C  C104  1  0.18330000  0.09970000  0.86220000  1
  C  C105  1  0.18470000  0.74720000  0.62020000  1
  C  C106  1  0.19010000  0.34060000  0.03140000  1
  C  C107  1  0.19490000  0.75130000  0.68720000  1
  C  C108  1  0.19640000  0.05020000  0.91010000  1
  C  C109  1  0.21380000  0.19480000  0.31640000  1
  C  C110  1  0.22780000  0.41570000  0.14910000  1
  C  C111  1  0.23120000  0.41320000  0.33810000  1
  C  C112  1  0.23210000  0.53060000  0.34950000  1
  C  C113  1  0.25110000  0.80540000  0.52710000  1
  C  C114  1  0.25340000  0.00590000  0.20820000  1
  C  C115  1  0.26050000  0.02450000  0.27490000  1
  C  C116  1  0.26810000  0.80900000  0.59930000  1
  C  C117  1  0.27200000  0.19420000  0.86750000  1
  C  C118  1  0.27610000  0.43080000  0.03130000  1
  C  C119  1  0.28050000  0.39540000  0.60050000  1
  C  C120  1  0.28360000  0.44390000  0.55190000  1
  C  C121  1  0.29540000  0.82190000  0.73110000  1
  C  C122  1  0.29640000  0.09340000  0.95720000  1
  C  C123  1  0.29840000  0.92710000  0.16940000  1
  C  C124  1  0.31240000  0.50350000  0.14450000  1
  C  C125  1  0.31460000  0.96640000  0.30260000  1
  C  C126  1  0.31690000  0.26230000  0.30850000  1
  C  C127  1  0.31740000  0.77560000  0.88830000  1
  C  C128  1  0.32330000  0.37100000  0.31840000  1
  C  C129  1  0.32570000  0.75730000  0.82460000  1
  C  C130  1  0.34300000  0.70590000  0.92010000  1
  C  C131  1  0.35020000  0.66350000  0.78590000  1
  C  C132  1  0.35580000  0.86710000  0.19640000  1
  C  C133  1  0.36460000  0.88750000  0.26430000  1
  C  C134  1  0.36680000  0.87970000  0.64510000  1
  C  C135  1  0.37340000  0.61080000  0.88390000  1
  C  C136  1  0.37470000  0.58920000  0.81660000  1
  C  C137  1  0.38040000  0.88500000  0.71230000  1
  C  C138  1  0.38090000  0.18750000  0.95820000  1
  C  C139  1  0.39610000  0.47420000  0.52620000  1
  C  C140  1  0.40360000  0.78190000  0.15520000  1
  C  C141  1  0.41020000  0.54130000  0.92000000  1
  C  C142  1  0.42350000  0.56590000  0.50860000  1
  C  C143  1  0.47510000  0.40910000  0.51840000  1
  C  C144  1  0.52490000  0.59090000  0.48160000  1
  C  C145  1  0.57650000  0.43410000  0.49140000  1
  C  C146  1  0.58980000  0.45870000  0.08000000  1
  C  C147  1  0.59640000  0.21810000  0.84480000  1
  C  C148  1  0.60390000  0.52580000  0.47380000  1
  C  C149  1  0.61910000  0.81250000  0.04180000  1
  C  C150  1  0.61960000  0.11500000  0.28770000  1
  C  C151  1  0.62530000  0.41080000  0.18340000  1
  C  C152  1  0.62660000  0.38920000  0.11610000  1
  C  C153  1  0.63320000  0.12030000  0.35490000  1
  C  C154  1  0.63540000  0.11250000  0.73570000  1
  C  C155  1  0.64420000  0.13290000  0.80360000  1
  C  C156  1  0.64980000  0.33650000  0.21410000  1
  C  C157  1  0.65700000  0.29410000  0.07990000  1
  C  C158  1  0.67430000  0.24270000  0.17540000  1
  C  C159  1  0.67670000  0.62900000  0.68160000  1
  C  C160  1  0.68260000  0.22440000  0.11170000  1
  C  C161  1  0.68310000  0.73770000  0.69150000  1
  C  C162  1  0.68540000  0.03360000  0.69740000  1
  C  C163  1  0.68760000  0.49650000  0.85550000  1
  C  C164  1  0.70160000  0.07290000  0.83060000  1
  C  C165  1  0.70360000  0.90660000  0.04280000  1
  C  C166  1  0.70460000  0.17810000  0.26890000  1
  C  C167  1  0.71640000  0.55610000  0.44810000  1
  C  C168  1  0.71950000  0.60460000  0.39950000  1
  C  C169  1  0.72390000  0.56920000  0.96870000  1
  C  C170  1  0.72800000  0.80580000  0.13250000  1
  C  C171  1  0.73190000  0.19100000  0.40070000  1
  C  C172  1  0.73950000  0.97550000  0.72510000  1
  C  C173  1  0.74660000  0.99410000  0.79180000  1
  C  C174  1  0.74890000  0.19460000  0.47290000  1
  C  C175  1  0.76790000  0.46940000  0.65050000  1
  C  C176  1  0.76880000  0.58680000  0.66190000  1
  C  C177  1  0.77220000  0.58430000  0.85090000  1
  C  C178  1  0.78620000  0.80520000  0.68360000  1
  C  C179  1  0.80360000  0.94980000  0.08990000  1
  C  C180  1  0.80510000  0.24870000  0.31280000  1
  C  C181  1  0.80990000  0.65940000  0.96860000  1
  C  C182  1  0.81530000  0.25280000  0.37980000  1
  C  C183  1  0.81670000  0.90030000  0.13780000  1
  C  C184  1  0.82020000  0.53580000  0.46900000  1
  C  C185  1  0.82600000  0.63830000  0.37940000  1
  C  C186  1  0.83750000  0.66910000  0.90980000  1
  C  C187  1  0.87090000  0.65500000  0.65540000  1
  C  C188  1  0.87840000  0.76170000  0.66420000  1
  C  C189  1  0.89690000  0.04920000  0.09050000  1
  C  C190  1  0.90470000  0.07480000  0.03470000  1
  C  C191  1  0.91450000  0.40590000  0.95840000  1
  C  C192  1  0.91870000  0.44260000  0.02650000  1
  C  C193  1  0.92320000  0.57000000  0.44690000  1
  C  C194  1  0.92950000  0.76440000  0.90750000  1
  C  C195  1  0.93310000  0.28260000  0.74920000  1
  C  C196  1  0.93650000  0.79050000  0.85020000  1
  C  C197  1  0.94740000  0.31480000  0.81740000  1
  C  C198  1  0.97130000  0.50380000  0.17700000  1
  C  C199  1  0.97860000  0.11840000  0.14880000  1
  C  C200  1  0.98770000  0.54120000  0.24510000  1
  C  C201  1  0.98910000  0.16500000  0.03580000  1
  C  C202  1  0.99350000  0.42360000  0.85800000  1
  C  C203  1  0.99880000  0.46270000  0.93050000  1
  N  N204  1  0.03950000  0.64770000  0.28360000  1
  N  N205  1  0.07080000  0.37720000  0.59670000  1
  N  N206  1  0.33950000  0.51230000  0.08640000  1
  N  N207  1  0.37160000  0.23620000  0.91410000  1
  N  N208  1  0.62840000  0.76380000  0.08590000  1
  N  N209  1  0.66050000  0.48770000  0.91360000  1
  N  N210  1  0.92920000  0.62280000  0.40330000  1
  N  N211  1  0.96050000  0.35230000  0.71640000  1
  O  O212  1  0.15170000  0.75140000  0.49110000  1
  O  O213  1  0.15210000  0.56210000  0.37790000  1
  O  O214  1  0.19730000  0.08940000  0.31310000  1
  O  O215  1  0.30480000  0.83850000  0.79980000  1
  O  O216  1  0.31170000  0.58770000  0.32910000  1
  O  O217  1  0.33830000  0.85610000  0.50860000  1
  O  O218  1  0.37570000  0.75100000  0.09170000  1
  O  O219  1  0.40660000  0.44320000  0.88580000  1
  O  O220  1  0.44680000  0.58560000  0.98220000  1
  O  O221  1  0.47190000  0.73790000  0.18190000  1
  O  O222  1  0.52810000  0.26210000  0.81810000  1
  O  O223  1  0.55320000  0.41440000  0.01780000  1
  O  O224  1  0.59340000  0.55680000  0.11420000  1
  O  O225  1  0.62430000  0.24900000  0.90830000  1
  O  O226  1  0.66170000  0.14390000  0.49140000  1
  O  O227  1  0.68830000  0.41230000  0.67090000  1
  O  O228  1  0.69520000  0.16150000  0.20020000  1
  O  O229  1  0.80270000  0.91060000  0.68690000  1
  O  O230  1  0.84790000  0.43790000  0.62210000  1
  O  O231  1  0.84830000  0.24860000  0.50890000  1
