# generated using pymatgen
data_ZnH12C15(NO2)2
_symmetry_space_group_name_H-M   'P 1'
_cell_length_a   12.25270000
_cell_length_b   24.71840000
_cell_length_c   31.25150000
_cell_angle_alpha   90.00000000
_cell_angle_beta   90.00000000
_cell_angle_gamma   97.02300000
_symmetry_Int_Tables_number   1
_chemical_formula_structural   ZnH12C15(NO2)2
_chemical_formula_sum   'Zn16 H192 C240 N32 O64'
_cell_volume   9394.03754891
_cell_formula_units_Z   16
loop_
 _symmetry_equiv_pos_site_id
 _symmetry_equiv_pos_as_xyz
  1  'x, y, z'
loop_
 _atom_site_type_symbol
 _atom_site_label
 _atom_site_symmetry_multiplicity
 _atom_site_fract_x
 _atom_site_fract_y
 _atom_site_fract_z
 _atom_site_occupancy
  Zn  Zn0  1  0.08961000  0.70653000  0.24093000  1
  Zn  Zn1  1  0.11210000  0.24623000  0.77089000  1
  Zn  Zn2  1  0.20140000  0.93385000  0.86117000  1
  Zn  Zn3  1  0.20304000  0.41896000  0.37616000  1
  Zn  Zn4  1  0.29696000  0.08104000  0.87616000  1
  Zn  Zn5  1  0.29860000  0.56615000  0.36117000  1
  Zn  Zn6  1  0.38790000  0.25377000  0.27089000  1
  Zn  Zn7  1  0.41039000  0.79347000  0.74093000  1
  Zn  Zn8  1  0.58961000  0.20653000  0.25907000  1
  Zn  Zn9  1  0.61210000  0.74623000  0.72911000  1
  Zn  Zn10  1  0.70140000  0.43385000  0.63883000  1
  Zn  Zn11  1  0.70304000  0.91896000  0.12384000  1
  Zn  Zn12  1  0.79696000  0.58104000  0.62384000  1
  Zn  Zn13  1  0.79860000  0.06615000  0.13883000  1
  Zn  Zn14  1  0.88790000  0.75377000  0.22911000  1
  Zn  Zn15  1  0.91039000  0.29347000  0.75907000  1
  H  H16  1  0.00870000  0.34810000  0.32910000  1
  H  H17  1  0.01360000  0.13290000  0.26360000  1
  H  H18  1  0.01550000  0.65550000  0.74740000  1
  H  H19  1  0.01890000  0.86260000  0.81210000  1
  H  H20  1  0.02710000  0.11620000  0.03220000  1
  H  H21  1  0.03450000  0.29850000  0.22530000  1
  H  H22  1  0.03750000  0.40080000  0.65120000  1
  H  H23  1  0.04160000  0.88750000  0.12880000  1
  H  H24  1  0.04170000  0.92210000  0.26810000  1
  H  H25  1  0.04250000  0.82790000  0.70460000  1
  H  H26  1  0.05940000  0.20200000  0.90000000  1
  H  H27  1  0.06260000  0.02110000  0.28840000  1
  H  H28  1  0.06540000  0.46230000  0.74760000  1
  H  H29  1  0.06840000  0.63530000  0.52080000  1
  H  H30  1  0.07090000  0.69440000  0.37980000  1
  H  H31  1  0.07510000  0.30470000  0.35260000  1
  H  H32  1  0.07990000  0.56410000  0.62930000  1
  H  H33  1  0.08430000  0.05030000  0.15260000  1
  H  H34  1  0.08490000  0.56120000  0.72950000  1
  H  H35  1  0.08600000  0.14650000  0.96500000  1
  H  H36  1  0.09700000  0.94240000  0.77020000  1
  H  H37  1  0.09800000  0.82110000  0.83040000  1
  H  H38  1  0.10630000  0.41840000  0.28330000  1
  H  H39  1  0.11850000  0.65890000  0.45120000  1
  H  H40  1  0.13200000  0.23250000  0.26110000  1
  H  H41  1  0.14910000  0.23560000  0.31190000  1
  H  H42  1  0.15330000  0.61050000  0.29070000  1
  H  H43  1  0.15840000  0.76500000  0.73210000  1
  H  H44  1  0.16240000  0.14460000  0.81360000  1
  H  H45  1  0.16990000  0.10490000  0.29110000  1
  H  H46  1  0.18160000  0.76230000  0.78240000  1
  H  H47  1  0.18990000  0.60580000  0.21370000  1
  H  H48  1  0.19030000  0.14750000  0.73600000  1
  H  H49  1  0.19270000  0.64450000  0.72430000  1
  H  H50  1  0.19310000  0.70580000  0.10420000  1
  H  H51  1  0.20490000  0.66250000  0.31780000  1
  H  H52  1  0.21410000  0.21210000  0.07140000  1
  H  H53  1  0.21460000  0.78580000  0.96930000  1
  H  H54  1  0.22600000  0.39930000  0.65350000  1
  H  H55  1  0.22660000  0.19070000  0.84340000  1
  H  H56  1  0.22660000  0.95260000  0.76140000  1
  H  H57  1  0.22920000  0.30370000  0.21500000  1
  H  H58  1  0.22970000  0.88700000  0.12320000  1
  H  H59  1  0.23640000  0.42090000  0.27670000  1
  H  H60  1  0.23660000  0.84470000  0.69050000  1
  H  H61  1  0.23690000  0.32220000  0.49930000  1
  H  H62  1  0.23700000  0.26620000  0.64120000  1
  H  H63  1  0.24330000  0.73090000  0.03520000  1
  H  H64  1  0.25670000  0.76910000  0.53520000  1
  H  H65  1  0.26300000  0.23380000  0.14120000  1
  H  H66  1  0.26310000  0.17780000  0.99930000  1
  H  H67  1  0.26340000  0.65530000  0.19050000  1
  H  H68  1  0.26360000  0.07910000  0.77670000  1
  H  H69  1  0.27030000  0.61300000  0.62320000  1
  H  H70  1  0.27080000  0.19630000  0.71500000  1
  H  H71  1  0.27340000  0.30930000  0.34340000  1
  H  H72  1  0.27340000  0.54740000  0.26140000  1
  H  H73  1  0.27400000  0.10070000  0.15350000  1
  H  H74  1  0.28540000  0.71420000  0.46930000  1
  H  H75  1  0.28590000  0.28790000  0.57140000  1
  H  H76  1  0.29510000  0.83750000  0.81780000  1
  H  H77  1  0.30690000  0.79420000  0.60420000  1
  H  H78  1  0.30730000  0.85550000  0.22430000  1
  H  H79  1  0.30970000  0.35250000  0.23600000  1
  H  H80  1  0.31010000  0.89420000  0.71370000  1
  H  H81  1  0.31840000  0.73770000  0.28240000  1
  H  H82  1  0.33010000  0.39510000  0.79110000  1
  H  H83  1  0.33760000  0.35540000  0.31360000  1
  H  H84  1  0.34160000  0.73500000  0.23210000  1
  H  H85  1  0.34670000  0.88950000  0.79070000  1
  H  H86  1  0.35090000  0.26440000  0.81190000  1
  H  H87  1  0.36800000  0.26750000  0.76110000  1
  H  H88  1  0.38150000  0.84110000  0.95120000  1
  H  H89  1  0.39370000  0.08160000  0.78330000  1
  H  H90  1  0.40200000  0.67890000  0.33040000  1
  H  H91  1  0.40300000  0.55760000  0.27020000  1
  H  H92  1  0.41400000  0.35350000  0.46500000  1
  H  H93  1  0.41510000  0.93880000  0.22950000  1
  H  H94  1  0.41570000  0.44970000  0.65260000  1
  H  H95  1  0.42010000  0.93590000  0.12930000  1
  H  H96  1  0.42490000  0.19530000  0.85260000  1
  H  H97  1  0.42910000  0.80560000  0.87980000  1
  H  H98  1  0.43160000  0.86470000  0.02080000  1
  H  H99  1  0.43460000  0.03770000  0.24760000  1
  H  H100  1  0.43740000  0.47890000  0.78840000  1
  H  H101  1  0.44060000  0.29800000  0.40000000  1
  H  H102  1  0.45750000  0.67210000  0.20460000  1
  H  H103  1  0.45830000  0.57790000  0.76810000  1
  H  H104  1  0.45840000  0.61250000  0.62880000  1
  H  H105  1  0.46250000  0.09920000  0.15120000  1
  H  H106  1  0.46550000  0.20150000  0.72530000  1
  H  H107  1  0.47290000  0.38380000  0.53220000  1
  H  H108  1  0.48110000  0.63740000  0.31210000  1
  H  H109  1  0.48450000  0.84450000  0.24740000  1
  H  H110  1  0.48640000  0.36710000  0.76360000  1
  H  H111  1  0.49130000  0.15190000  0.82910000  1
  H  H112  1  0.50870000  0.84810000  0.17090000  1
  H  H113  1  0.51360000  0.63290000  0.23640000  1
  H  H114  1  0.51550000  0.15550000  0.75260000  1
  H  H115  1  0.51890000  0.36260000  0.68790000  1
  H  H116  1  0.52710000  0.61620000  0.46780000  1
  H  H117  1  0.53450000  0.79850000  0.27470000  1
  H  H118  1  0.53750000  0.90080000  0.84880000  1
  H  H119  1  0.54160000  0.38750000  0.37120000  1
  H  H120  1  0.54170000  0.42210000  0.23190000  1
  H  H121  1  0.54250000  0.32790000  0.79540000  1
  H  H122  1  0.55940000  0.70200000  0.60000000  1
  H  H123  1  0.56260000  0.52110000  0.21160000  1
  H  H124  1  0.56540000  0.96230000  0.75240000  1
  H  H125  1  0.56840000  0.13530000  0.97920000  1
  H  H126  1  0.57090000  0.19440000  0.12020000  1
  H  H127  1  0.57510000  0.80470000  0.14740000  1
  H  H128  1  0.57990000  0.06410000  0.87070000  1
  H  H129  1  0.58430000  0.55030000  0.34740000  1
  H  H130  1  0.58490000  0.06120000  0.77050000  1
  H  H131  1  0.58600000  0.64650000  0.53500000  1
  H  H132  1  0.59700000  0.44240000  0.72980000  1
  H  H133  1  0.59800000  0.32110000  0.66960000  1
  H  H134  1  0.60630000  0.91840000  0.21670000  1
  H  H135  1  0.61850000  0.15890000  0.04880000  1
  H  H136  1  0.63200000  0.73250000  0.23890000  1
  H  H137  1  0.64910000  0.73560000  0.18810000  1
  H  H138  1  0.65330000  0.11050000  0.20930000  1
  H  H139  1  0.65840000  0.26500000  0.76790000  1
  H  H140  1  0.66240000  0.64460000  0.68640000  1
  H  H141  1  0.66990000  0.60490000  0.20890000  1
  H  H142  1  0.68160000  0.26230000  0.71760000  1
  H  H143  1  0.68990000  0.10580000  0.28630000  1
  H  H144  1  0.69030000  0.64750000  0.76400000  1
  H  H145  1  0.69270000  0.14450000  0.77570000  1
  H  H146  1  0.69310000  0.20580000  0.39580000  1
  H  H147  1  0.70490000  0.16250000  0.18220000  1
  H  H148  1  0.71410000  0.71210000  0.42860000  1
  H  H149  1  0.71460000  0.28580000  0.53070000  1
  H  H150  1  0.72600000  0.89930000  0.84650000  1
  H  H151  1  0.72660000  0.45260000  0.73860000  1
  H  H152  1  0.72660000  0.69070000  0.65660000  1
  H  H153  1  0.72920000  0.80370000  0.28500000  1
  H  H154  1  0.72970000  0.38700000  0.37680000  1
  H  H155  1  0.73640000  0.92090000  0.22330000  1
  H  H156  1  0.73660000  0.34470000  0.80950000  1
  H  H157  1  0.73690000  0.82220000  0.00070000  1
  H  H158  1  0.73700000  0.76620000  0.85880000  1
  H  H159  1  0.74330000  0.23090000  0.46480000  1
  H  H160  1  0.75670000  0.26910000  0.96480000  1
  H  H161  1  0.76300000  0.73380000  0.35880000  1
  H  H162  1  0.76310000  0.67780000  0.50070000  1
  H  H163  1  0.76340000  0.15530000  0.30950000  1
  H  H164  1  0.76360000  0.57910000  0.72330000  1
  H  H165  1  0.77030000  0.11300000  0.87680000  1
  H  H166  1  0.77080000  0.69630000  0.78500000  1
  H  H167  1  0.77340000  0.04740000  0.23860000  1
  H  H168  1  0.77340000  0.80930000  0.15660000  1
  H  H169  1  0.77400000  0.60070000  0.34650000  1
  H  H170  1  0.78540000  0.21420000  0.03070000  1
  H  H171  1  0.78590000  0.78790000  0.92860000  1
  H  H172  1  0.79510000  0.33750000  0.68220000  1
  H  H173  1  0.80690000  0.29420000  0.89580000  1
  H  H174  1  0.80730000  0.35550000  0.27570000  1
  H  H175  1  0.80970000  0.85250000  0.26400000  1
  H  H176  1  0.81010000  0.39420000  0.78630000  1
  H  H177  1  0.81840000  0.23770000  0.21760000  1
  H  H178  1  0.83010000  0.89510000  0.70890000  1
  H  H179  1  0.83760000  0.85540000  0.18640000  1
  H  H180  1  0.84160000  0.23500000  0.26790000  1
  H  H181  1  0.84670000  0.38950000  0.70930000  1
  H  H182  1  0.85090000  0.76440000  0.68810000  1
  H  H183  1  0.86800000  0.76750000  0.73890000  1
  H  H184  1  0.88150000  0.34110000  0.54880000  1
  H  H185  1  0.89370000  0.58160000  0.71670000  1
  H  H186  1  0.90200000  0.17890000  0.16960000  1
  H  H187  1  0.90300000  0.05760000  0.22980000  1
  H  H188  1  0.91400000  0.85350000  0.03500000  1
  H  H189  1  0.91510000  0.43880000  0.27050000  1
  H  H190  1  0.91570000  0.94970000  0.84740000  1
  H  H191  1  0.92010000  0.43590000  0.37070000  1
  H  H192  1  0.92490000  0.69530000  0.64740000  1
  H  H193  1  0.92910000  0.30560000  0.62020000  1
  H  H194  1  0.93160000  0.36470000  0.47920000  1
  H  H195  1  0.93460000  0.53770000  0.25240000  1
  H  H196  1  0.93740000  0.97890000  0.71160000  1
  H  H197  1  0.94060000  0.79800000  0.10000000  1
  H  H198  1  0.95750000  0.17210000  0.29540000  1
  H  H199  1  0.95830000  0.07790000  0.73190000  1
  H  H200  1  0.95840000  0.11250000  0.87120000  1
  H  H201  1  0.96250000  0.59920000  0.34880000  1
  H  H202  1  0.96550000  0.70150000  0.77470000  1
  H  H203  1  0.97290000  0.88380000  0.96780000  1
  H  H204  1  0.98110000  0.13740000  0.18790000  1
  H  H205  1  0.98450000  0.34450000  0.25260000  1
  H  H206  1  0.98640000  0.86710000  0.73640000  1
  H  H207  1  0.99130000  0.65190000  0.67090000  1
  C  C208  1  0.00129000  0.30263000  0.61018000  1
  C  C209  1  0.00270000  0.78537000  0.08689000  1
  C  C210  1  0.01073000  0.85803000  0.98237000  1
  C  C211  1  0.01674000  0.64867000  0.50216000  1
  C  C212  1  0.02383000  0.15967000  0.97766000  1
  C  C213  1  0.02931000  0.31658000  0.56720000  1
  C  C214  1  0.03306000  0.80240000  0.04487000  1
  C  C215  1  0.03330000  0.73706000  0.15482000  1
  C  C216  1  0.04196000  0.48358000  0.64139000  1
  C  C217  1  0.04608000  0.96972000  0.14195000  1
  C  C218  1  0.04651000  0.66287000  0.46094000  1
  C  C219  1  0.04727000  0.32294000  0.25039000  1
  C  C220  1  0.05004000  0.27496000  0.68388000  1
  C  C221  1  0.05375000  0.84962000  0.73121000  1
  C  C222  1  0.06209000  0.75066000  0.10902000  1
  C  C223  1  0.07136000  0.32654000  0.32623000  1
  C  C224  1  0.07546000  0.03037000  0.85436000  1
  C  C225  1  0.07753000  0.28490000  0.63745000  1
  C  C226  1  0.07952000  0.51520000  0.35641000  1
  C  C227  1  0.08567000  0.43362000  0.64777000  1
  C  C228  1  0.08616000  0.84544000  0.80613000  1
  C  C229  1  0.08965000  0.92028000  0.13268000  1
  C  C230  1  0.09070000  0.34609000  0.48308000  1
  C  C231  1  0.09550000  0.82659000  0.24231000  1
  C  C232  1  0.10196000  0.83830000  0.96267000  1
  C  C233  1  0.11031000  0.53121000  0.63445000  1
  C  C234  1  0.11467000  0.01746000  0.14683000  1
  C  C235  1  0.11735000  0.92578000  0.26053000  1
  C  C236  1  0.11986000  0.36550000  0.76978000  1
  C  C237  1  0.12456000  0.78210000  0.02508000  1
  C  C238  1  0.12519000  0.36594000  0.43917000  1
  C  C239  1  0.13720000  0.02421000  0.27948000  1
  C  C240  1  0.13723000  0.31107000  0.55230000  1
  C  C241  1  0.14091000  0.46583000  0.75530000  1
  C  C242  1  0.14465000  0.25775000  0.28567000  1
  C  C243  1  0.14544000  0.86102000  0.92029000  1
  C  C244  1  0.15293000  0.73015000  0.08906000  1
  C  C245  1  0.15570000  0.80023000  0.98324000  1
  C  C246  1  0.16016000  0.56419000  0.73752000  1
  C  C247  1  0.16310000  0.92408000  0.76484000  1
  C  C248  1  0.16313000  0.88120000  0.24601000  1
  C  C249  1  0.16534000  0.32606000  0.50966000  1
  C  C250  1  0.16765000  0.39597000  0.28090000  1
  C  C251  1  0.16921000  0.78707000  0.75852000  1
  C  C252  1  0.18202000  0.97755000  0.26433000  1
  C  C253  1  0.18293000  0.74517000  0.04824000  1
  C  C254  1  0.18495000  0.27905000  0.62238000  1
  C  C255  1  0.18659000  0.42099000  0.76887000  1
  C  C256  1  0.19712000  0.43273000  0.64894000  1
  C  C257  1  0.20094000  0.92009000  0.12936000  1
  C  C258  1  0.20108000  0.07375000  0.28137000  1
  C  C259  1  0.20507000  0.51772000  0.75258000  1
  C  C260  1  0.21380000  0.29185000  0.58106000  1
  C  C261  1  0.21818000  0.63835000  0.29350000  1
  C  C262  1  0.22409000  0.61356000  0.73434000  1
  C  C263  1  0.22599000  0.53127000  0.63499000  1
  C  C264  1  0.23038000  0.01853000  0.14342000  1
  C  C265  1  0.23222000  0.16890000  0.81708000  1
  C  C266  1  0.24058000  0.32785000  0.24030000  1
  C  C267  1  0.24615000  0.86596000  0.71732000  1
  C  C268  1  0.25385000  0.63404000  0.21732000  1
  C  C269  1  0.25942000  0.17215000  0.74030000  1
  C  C270  1  0.26778000  0.33110000  0.31708000  1
  C  C271  1  0.26962000  0.48147000  0.64342000  1
  C  C272  1  0.27401000  0.96873000  0.13499000  1
  C  C273  1  0.27591000  0.88644000  0.23434000  1
  C  C274  1  0.28182000  0.86165000  0.79350000  1
  C  C275  1  0.28620000  0.20815000  0.08106000  1
  C  C276  1  0.29493000  0.98228000  0.25258000  1
  C  C277  1  0.29892000  0.42625000  0.78137000  1
  C  C278  1  0.29906000  0.57991000  0.62936000  1
  C  C279  1  0.30288000  0.06727000  0.14894000  1
  C  C280  1  0.31341000  0.07901000  0.26887000  1
  C  C281  1  0.31505000  0.22095000  0.12238000  1
  C  C282  1  0.31707000  0.75483000  0.54824000  1
  C  C283  1  0.31798000  0.52245000  0.76433000  1
  C  C284  1  0.33079000  0.71293000  0.25852000  1
  C  C285  1  0.33235000  0.10403000  0.78090000  1
  C  C286  1  0.33466000  0.17394000  0.00966000  1
  C  C287  1  0.33687000  0.61880000  0.74601000  1
  C  C288  1  0.33690000  0.57592000  0.26484000  1
  C  C289  1  0.33984000  0.93581000  0.23752000  1
  C  C290  1  0.34430000  0.69977000  0.48324000  1
  C  C291  1  0.34707000  0.76985000  0.58906000  1
  C  C292  1  0.35456000  0.63898000  0.42029000  1
  C  C293  1  0.35535000  0.24225000  0.78567000  1
  C  C294  1  0.35909000  0.03417000  0.25530000  1
  C  C295  1  0.36277000  0.18893000  0.05230000  1
  C  C296  1  0.36280000  0.47579000  0.77948000  1
  C  C297  1  0.37481000  0.13406000  0.93917000  1
  C  C298  1  0.37544000  0.71790000  0.52508000  1
  C  C299  1  0.38014000  0.13450000  0.26978000  1
  C  C300  1  0.38265000  0.57422000  0.76053000  1
  C  C301  1  0.38533000  0.48254000  0.64683000  1
  C  C302  1  0.38969000  0.96879000  0.13445000  1
  C  C303  1  0.39804000  0.66170000  0.46267000  1
  C  C304  1  0.40450000  0.67341000  0.74231000  1
  C  C305  1  0.40930000  0.15391000  0.98308000  1
  C  C306  1  0.41035000  0.57972000  0.63268000  1
  C  C307  1  0.41384000  0.65456000  0.30613000  1
  C  C308  1  0.41433000  0.06638000  0.14777000  1
  C  C309  1  0.42048000  0.98480000  0.85641000  1
  C  C310  1  0.42247000  0.21510000  0.13745000  1
  C  C311  1  0.42454000  0.46963000  0.35436000  1
  C  C312  1  0.42864000  0.17346000  0.82623000  1
  C  C313  1  0.43791000  0.74934000  0.60902000  1
  C  C314  1  0.44625000  0.65038000  0.23121000  1
  C  C315  1  0.44996000  0.22504000  0.18388000  1
  C  C316  1  0.45273000  0.17706000  0.75039000  1
  C  C317  1  0.45349000  0.83713000  0.96094000  1
  C  C318  1  0.45392000  0.53028000  0.64195000  1
  C  C319  1  0.45804000  0.01642000  0.14139000  1
  C  C320  1  0.46670000  0.76294000  0.65482000  1
  C  C321  1  0.46694000  0.69760000  0.54487000  1
  C  C322  1  0.47069000  0.18342000  0.06720000  1
  C  C323  1  0.47617000  0.34033000  0.47766000  1
  C  C324  1  0.48326000  0.85133000  0.00216000  1
  C  C325  1  0.48927000  0.64197000  0.48237000  1
  C  C326  1  0.49730000  0.71463000  0.58689000  1
  C  C327  1  0.49871000  0.19737000  0.11018000  1
  C  C328  1  0.50129000  0.80263000  0.88982000  1
  C  C329  1  0.50270000  0.28537000  0.41311000  1
  C  C330  1  0.51073000  0.35803000  0.51763000  1
  C  C331  1  0.51674000  0.14867000  0.99784000  1
  C  C332  1  0.52383000  0.65967000  0.52234000  1
  C  C333  1  0.52931000  0.81658000  0.93280000  1
  C  C334  1  0.53306000  0.30240000  0.45513000  1
  C  C335  1  0.53330000  0.23706000  0.34518000  1
  C  C336  1  0.54196000  0.98358000  0.85861000  1
  C  C337  1  0.54608000  0.46972000  0.35805000  1
  C  C338  1  0.54651000  0.16287000  0.03906000  1
  C  C339  1  0.54727000  0.82294000  0.24961000  1
  C  C340  1  0.55004000  0.77496000  0.81612000  1
  C  C341  1  0.55375000  0.34962000  0.76879000  1
  C  C342  1  0.56209000  0.25066000  0.39098000  1
  C  C343  1  0.57136000  0.82654000  0.17377000  1
  C  C344  1  0.57546000  0.53037000  0.64564000  1
  C  C345  1  0.57753000  0.78490000  0.86255000  1
  C  C346  1  0.57952000  0.01520000  0.14359000  1
  C  C347  1  0.58567000  0.93362000  0.85223000  1
  C  C348  1  0.58616000  0.34544000  0.69387000  1
  C  C349  1  0.58965000  0.42028000  0.36732000  1
  C  C350  1  0.59070000  0.84609000  0.01692000  1
  C  C351  1  0.59550000  0.32659000  0.25769000  1
  C  C352  1  0.60196000  0.33830000  0.53733000  1
  C  C353  1  0.61031000  0.03121000  0.86555000  1
  C  C354  1  0.61467000  0.51746000  0.35317000  1
  C  C355  1  0.61735000  0.42578000  0.23947000  1
  C  C356  1  0.61986000  0.86550000  0.73022000  1
  C  C357  1  0.62456000  0.28210000  0.47492000  1
  C  C358  1  0.62519000  0.86594000  0.06083000  1
  C  C359  1  0.63720000  0.52421000  0.22052000  1
  C  C360  1  0.63723000  0.81107000  0.94770000  1
  C  C361  1  0.64091000  0.96583000  0.74470000  1
  C  C362  1  0.64465000  0.75775000  0.21433000  1
  C  C363  1  0.64544000  0.36102000  0.57971000  1
  C  C364  1  0.65293000  0.23015000  0.41094000  1
  C  C365  1  0.65570000  0.30023000  0.51676000  1
  C  C366  1  0.66016000  0.06419000  0.76248000  1
  C  C367  1  0.66310000  0.42408000  0.73516000  1
  C  C368  1  0.66313000  0.38120000  0.25399000  1
  C  C369  1  0.66534000  0.82606000  0.99034000  1
  C  C370  1  0.66765000  0.89597000  0.21910000  1
  C  C371  1  0.66921000  0.28707000  0.74148000  1
  C  C372  1  0.68202000  0.47755000  0.23567000  1
  C  C373  1  0.68293000  0.24517000  0.45176000  1
  C  C374  1  0.68495000  0.77905000  0.87762000  1
  C  C375  1  0.68659000  0.92099000  0.73113000  1
  C  C376  1  0.69712000  0.93273000  0.85106000  1
  C  C377  1  0.70094000  0.42009000  0.37064000  1
  C  C378  1  0.70108000  0.57375000  0.21863000  1
  C  C379  1  0.70507000  0.01772000  0.74742000  1
  C  C380  1  0.71380000  0.79185000  0.91894000  1
  C  C381  1  0.71818000  0.13835000  0.20650000  1
  C  C382  1  0.72409000  0.11356000  0.76566000  1
  C  C383  1  0.72599000  0.03127000  0.86501000  1
  C  C384  1  0.73038000  0.51853000  0.35658000  1
  C  C385  1  0.73222000  0.66890000  0.68292000  1
  C  C386  1  0.74058000  0.82785000  0.25970000  1
  C  C387  1  0.74615000  0.36596000  0.78268000  1
  C  C388  1  0.75385000  0.13404000  0.28268000  1
  C  C389  1  0.75942000  0.67215000  0.75970000  1
  C  C390  1  0.76778000  0.83110000  0.18292000  1
  C  C391  1  0.76962000  0.98147000  0.85658000  1
  C  C392  1  0.77401000  0.46873000  0.36501000  1
  C  C393  1  0.77591000  0.38644000  0.26566000  1
  C  C394  1  0.78182000  0.36165000  0.70650000  1
  C  C395  1  0.78620000  0.70815000  0.41894000  1
  C  C396  1  0.79493000  0.48228000  0.24742000  1
  C  C397  1  0.79892000  0.92625000  0.71863000  1
  C  C398  1  0.79906000  0.07991000  0.87064000  1
  C  C399  1  0.80288000  0.56727000  0.35106000  1
  C  C400  1  0.81341000  0.57901000  0.23113000  1
  C  C401  1  0.81505000  0.72095000  0.37762000  1
  C  C402  1  0.81707000  0.25483000  0.95176000  1
  C  C403  1  0.81798000  0.02245000  0.73567000  1
  C  C404  1  0.83079000  0.21293000  0.24148000  1
  C  C405  1  0.83235000  0.60403000  0.71910000  1
  C  C406  1  0.83466000  0.67394000  0.49034000  1
  C  C407  1  0.83687000  0.11880000  0.75399000  1
  C  C408  1  0.83690000  0.07592000  0.23516000  1
  C  C409  1  0.83984000  0.43581000  0.26248000  1
  C  C410  1  0.84430000  0.19977000  0.01676000  1
  C  C411  1  0.84707000  0.26985000  0.91094000  1
  C  C412  1  0.85456000  0.13898000  0.07971000  1
  C  C413  1  0.85535000  0.74225000  0.71433000  1
  C  C414  1  0.85909000  0.53417000  0.24470000  1
  C  C415  1  0.86277000  0.68893000  0.44770000  1
  C  C416  1  0.86280000  0.97579000  0.72052000  1
  C  C417  1  0.87481000  0.63406000  0.56083000  1
  C  C418  1  0.87544000  0.21790000  0.97492000  1
  C  C419  1  0.88014000  0.63450000  0.23022000  1
  C  C420  1  0.88265000  0.07422000  0.73947000  1
  C  C421  1  0.88533000  0.98254000  0.85317000  1
  C  C422  1  0.88969000  0.46879000  0.36555000  1
  C  C423  1  0.89804000  0.16170000  0.03733000  1
  C  C424  1  0.90450000  0.17341000  0.75769000  1
  C  C425  1  0.90930000  0.65391000  0.51692000  1
  C  C426  1  0.91035000  0.07972000  0.86732000  1
  C  C427  1  0.91384000  0.15456000  0.19387000  1
  C  C428  1  0.91433000  0.56638000  0.35223000  1
  C  C429  1  0.92048000  0.48480000  0.64359000  1
  C  C430  1  0.92247000  0.71510000  0.36255000  1
  C  C431  1  0.92454000  0.96963000  0.14564000  1
  C  C432  1  0.92864000  0.67346000  0.67377000  1
  C  C433  1  0.93791000  0.24934000  0.89098000  1
  C  C434  1  0.94625000  0.15038000  0.26879000  1
  C  C435  1  0.94996000  0.72504000  0.31612000  1
  C  C436  1  0.95273000  0.67706000  0.74961000  1
  C  C437  1  0.95349000  0.33713000  0.53906000  1
  C  C438  1  0.95392000  0.03028000  0.85805000  1
  C  C439  1  0.95804000  0.51642000  0.35861000  1
  C  C440  1  0.96670000  0.26294000  0.84518000  1
  C  C441  1  0.96694000  0.19760000  0.95513000  1
  C  C442  1  0.97069000  0.68342000  0.43280000  1
  C  C443  1  0.97617000  0.84033000  0.02234000  1
  C  C444  1  0.98326000  0.35133000  0.49784000  1
  C  C445  1  0.98927000  0.14197000  0.01763000  1
  C  C446  1  0.99730000  0.21463000  0.91311000  1
  C  C447  1  0.99871000  0.69737000  0.38982000  1
  N  N448  1  0.05232000  0.28976000  0.28943000  1
  N  N449  1  0.07033000  0.81313000  0.76705000  1
  N  N450  1  0.14769000  0.89230000  0.72531000  1
  N  N451  1  0.14936000  0.36012000  0.24385000  1
  N  N452  1  0.17572000  0.36462000  0.32164000  1
  N  N453  1  0.18274000  0.88902000  0.80260000  1
  N  N454  1  0.23164000  0.67118000  0.25343000  1
  N  N455  1  0.24873000  0.20623000  0.77953000  1
  N  N456  1  0.25127000  0.29377000  0.27953000  1
  N  N457  1  0.26836000  0.82882000  0.75343000  1
  N  N458  1  0.31726000  0.61098000  0.30260000  1
  N  N459  1  0.32428000  0.13538000  0.82164000  1
  N  N460  1  0.35064000  0.13988000  0.74385000  1
  N  N461  1  0.35231000  0.60770000  0.22531000  1
  N  N462  1  0.42967000  0.68687000  0.26705000  1
  N  N463  1  0.44768000  0.21024000  0.78943000  1
  N  N464  1  0.55232000  0.78976000  0.21057000  1
  N  N465  1  0.57033000  0.31313000  0.73295000  1
  N  N466  1  0.64769000  0.39230000  0.77469000  1
  N  N467  1  0.64936000  0.86012000  0.25615000  1
  N  N468  1  0.67572000  0.86462000  0.17836000  1
  N  N469  1  0.68274000  0.38902000  0.69740000  1
  N  N470  1  0.73164000  0.17118000  0.24657000  1
  N  N471  1  0.74873000  0.70623000  0.72047000  1
  N  N472  1  0.75127000  0.79377000  0.22047000  1
  N  N473  1  0.76836000  0.32882000  0.74657000  1
  N  N474  1  0.81726000  0.11098000  0.19740000  1
  N  N475  1  0.82428000  0.63538000  0.67836000  1
  N  N476  1  0.85064000  0.63988000  0.75615000  1
  N  N477  1  0.85231000  0.10770000  0.27469000  1
  N  N478  1  0.92967000  0.18687000  0.23295000  1
  N  N479  1  0.94768000  0.71024000  0.71057000  1
  O  O480  1  0.00796000  0.17597000  0.75622000  1
  O  O481  1  0.01960000  0.36235000  0.75934000  1
  O  O482  1  0.04484000  0.71808000  0.30361000  1
  O  O483  1  0.04670000  0.24177000  0.82983000  1
  O  O484  1  0.06001000  0.38829000  0.41619000  1
  O  O485  1  0.09153000  0.70685000  0.17506000  1
  O  O486  1  0.10500000  0.90329000  0.90679000  1
  O  O487  1  0.11167000  0.98867000  0.83907000  1
  O  O488  1  0.11478000  0.47135000  0.34622000  1
  O  O489  1  0.12621000  0.26145000  0.70722000  1
  O  O490  1  0.13425000  0.07274000  0.86652000  1
  O  O491  1  0.13905000  0.55984000  0.36324000  1
  O  O492  1  0.14917000  0.78632000  0.23779000  1
  O  O493  1  0.16993000  0.32619000  0.78043000  1
  O  O494  1  0.21850000  0.84044000  0.90091000  1
  O  O495  1  0.22230000  0.36244000  0.42671000  1
  O  O496  1  0.27770000  0.13756000  0.92671000  1
  O  O497  1  0.28150000  0.65956000  0.40091000  1
  O  O498  1  0.33007000  0.17381000  0.28043000  1
  O  O499  1  0.35083000  0.71368000  0.73779000  1
  O  O500  1  0.36095000  0.94016000  0.86324000  1
  O  O501  1  0.36575000  0.42726000  0.36652000  1
  O  O502  1  0.37379000  0.23855000  0.20722000  1
  O  O503  1  0.38522000  0.02865000  0.84622000  1
  O  O504  1  0.38833000  0.51133000  0.33907000  1
  O  O505  1  0.39500000  0.59671000  0.40679000  1
  O  O506  1  0.40847000  0.79315000  0.67506000  1
  O  O507  1  0.43999000  0.11171000  0.91619000  1
  O  O508  1  0.45330000  0.25823000  0.32983000  1
  O  O509  1  0.45516000  0.78192000  0.80361000  1
  O  O510  1  0.48040000  0.13765000  0.25934000  1
  O  O511  1  0.49204000  0.32403000  0.25622000  1
  O  O512  1  0.50796000  0.67597000  0.74378000  1
  O  O513  1  0.51960000  0.86235000  0.74066000  1
  O  O514  1  0.54484000  0.21808000  0.19639000  1
  O  O515  1  0.54670000  0.74177000  0.67017000  1
  O  O516  1  0.56001000  0.88829000  0.08381000  1
  O  O517  1  0.59153000  0.20685000  0.32494000  1
  O  O518  1  0.60500000  0.40329000  0.59321000  1
  O  O519  1  0.61167000  0.48867000  0.66093000  1
  O  O520  1  0.61478000  0.97135000  0.15378000  1
  O  O521  1  0.62621000  0.76145000  0.79278000  1
  O  O522  1  0.63425000  0.57274000  0.63348000  1
  O  O523  1  0.63905000  0.05984000  0.13676000  1
  O  O524  1  0.64917000  0.28632000  0.26221000  1
  O  O525  1  0.66993000  0.82619000  0.71957000  1
  O  O526  1  0.71850000  0.34044000  0.59909000  1
  O  O527  1  0.72230000  0.86244000  0.07329000  1
  O  O528  1  0.77770000  0.63756000  0.57329000  1
  O  O529  1  0.78150000  0.15956000  0.09909000  1
  O  O530  1  0.83007000  0.67381000  0.21957000  1
  O  O531  1  0.85083000  0.21368000  0.76221000  1
  O  O532  1  0.86095000  0.44016000  0.63676000  1
  O  O533  1  0.86575000  0.92726000  0.13348000  1
  O  O534  1  0.87379000  0.73855000  0.29278000  1
  O  O535  1  0.88522000  0.52865000  0.65378000  1
  O  O536  1  0.88833000  0.01133000  0.16093000  1
  O  O537  1  0.89500000  0.09671000  0.09321000  1
  O  O538  1  0.90847000  0.29315000  0.82494000  1
  O  O539  1  0.93999000  0.61171000  0.58381000  1
  O  O540  1  0.95330000  0.75823000  0.17017000  1
  O  O541  1  0.95516000  0.28192000  0.69639000  1
  O  O542  1  0.98040000  0.63765000  0.24066000  1
  O  O543  1  0.99204000  0.82403000  0.24378000  1
