# generated using pymatgen
data_Cd3H14(C5O2)6
_symmetry_space_group_name_H-M   'P 1'
_cell_length_a   10.07140000
_cell_length_b   11.19630000
_cell_length_c   18.94200000
_cell_angle_alpha   99.98660000
_cell_angle_beta   90.00000000
_cell_angle_gamma   116.72900000
_symmetry_Int_Tables_number   1
_chemical_formula_structural   Cd3H14(C5O2)6
_chemical_formula_sum   'Cd6 H28 C60 O24'
_cell_volume   1871.40072456
_cell_formula_units_Z   2
loop_
 _symmetry_equiv_pos_site_id
 _symmetry_equiv_pos_as_xyz
  1  'x, y, z'
loop_
 _atom_site_type_symbol
 _atom_site_label
 _atom_site_symmetry_multiplicity
 _atom_site_fract_x
 _atom_site_fract_y
 _atom_site_fract_z
 _atom_site_occupancy
  Cd  Cd0  1  0.00000000  0.50000000  0.50000000  1
  Cd  Cd1  1  0.35403000  0.81026000  0.47412000  1
  Cd  Cd2  1  0.45623000  0.81026000  0.97412000  1
  Cd  Cd3  1  0.50000000  0.50000000  0.00000000  1
  Cd  Cd4  1  0.54377000  0.18974000  0.02588000  1
  Cd  Cd5  1  0.64597000  0.18974000  0.52588000  1
  H  H6  1  0.01190000  0.34760000  0.34370000  1
  H  H7  1  0.01450000  0.21760000  0.98320000  1
  H  H8  1  0.04380000  0.35980000  0.65960000  1
  H  H9  1  0.04880000  0.84600000  0.74260000  1
  H  H10  1  0.13490000  0.95140000  0.86990000  1
  H  H11  1  0.17090000  0.87460000  0.35890000  1
  H  H12  1  0.17160000  0.54860000  0.74890000  1
  H  H13  1  0.18350000  0.04860000  0.63010000  1
  H  H14  1  0.20280000  0.15400000  0.75740000  1
  H  H15  1  0.20310000  0.21760000  0.48320000  1
  H  H16  1  0.29630000  0.12540000  0.14110000  1
  H  H17  1  0.31600000  0.35980000  0.15960000  1
  H  H18  1  0.33570000  0.34760000  0.84370000  1
  H  H19  1  0.37700000  0.54860000  0.24890000  1
  H  H20  1  0.62300000  0.45140000  0.75110000  1
  H  H21  1  0.66430000  0.65240000  0.15630000  1
  H  H22  1  0.68400000  0.64020000  0.84040000  1
  H  H23  1  0.70370000  0.87460000  0.85890000  1
  H  H24  1  0.79690000  0.78240000  0.51680000  1
  H  H25  1  0.79720000  0.84600000  0.24260000  1
  H  H26  1  0.81650000  0.95140000  0.36990000  1
  H  H27  1  0.82840000  0.45140000  0.25110000  1
  H  H28  1  0.82910000  0.12540000  0.64110000  1
  H  H29  1  0.86510000  0.04860000  0.13010000  1
  H  H30  1  0.95120000  0.15400000  0.25740000  1
  H  H31  1  0.95620000  0.64020000  0.34040000  1
  H  H32  1  0.98550000  0.78240000  0.01680000  1
  H  H33  1  0.98810000  0.65240000  0.65630000  1
  C  C34  1  0.00050000  0.09740000  0.43180000  1
  C  C35  1  0.01140000  0.86460000  0.04820000  1
  C  C36  1  0.02140000  0.10780000  0.64510000  1
  C  C37  1  0.03760000  0.23340000  0.25520000  1
  C  C38  1  0.06060000  0.97620000  0.88330000  1
  C  C39  1  0.07010000  0.81400000  0.53630000  1
  C  C40  1  0.07500000  0.34980000  0.30750000  1
  C  C41  1  0.08440000  0.02380000  0.61670000  1
  C  C42  1  0.08640000  0.10780000  0.14510000  1
  C  C43  1  0.09690000  0.09740000  0.93180000  1
  C  C44  1  0.10010000  0.35560000  0.69720000  1
  C  C45  1  0.10750000  0.23440000  0.70030000  1
  C  C46  1  0.12690000  0.23440000  0.20030000  1
  C  C47  1  0.12780000  0.93040000  0.37690000  1
  C  C48  1  0.14680000  0.13540000  0.45180000  1
  C  C49  1  0.15960000  0.94780000  0.07430000  1
  C  C50  1  0.17790000  0.46880000  0.75070000  1
  C  C51  1  0.19580000  0.23340000  0.75520000  1
  C  C52  1  0.19740000  0.06960000  0.12310000  1
  C  C53  1  0.20320000  0.46780000  0.30680000  1
  C  C54  1  0.21180000  0.05220000  0.42570000  1
  C  C55  1  0.24610000  0.59000000  0.36480000  1
  C  C56  1  0.25550000  0.35560000  0.19720000  1
  C  C57  1  0.25610000  0.18600000  0.96370000  1
  C  C58  1  0.26460000  0.46780000  0.80680000  1
  C  C59  1  0.27480000  0.34980000  0.80750000  1
  C  C60  1  0.27950000  0.91040000  0.04840000  1
  C  C61  1  0.29090000  0.46880000  0.25070000  1
  C  C62  1  0.34390000  0.59000000  0.86480000  1
  C  C63  1  0.36910000  0.08960000  0.45160000  1
  C  C64  1  0.63090000  0.91040000  0.54840000  1
  C  C65  1  0.65610000  0.41000000  0.13520000  1
  C  C66  1  0.70910000  0.53120000  0.74930000  1
  C  C67  1  0.72050000  0.08960000  0.95160000  1
  C  C68  1  0.72520000  0.65020000  0.19250000  1
  C  C69  1  0.73540000  0.53220000  0.19320000  1
  C  C70  1  0.74390000  0.81400000  0.03630000  1
  C  C71  1  0.74450000  0.64440000  0.80280000  1
  C  C72  1  0.75390000  0.41000000  0.63520000  1
  C  C73  1  0.78820000  0.94780000  0.57430000  1
  C  C74  1  0.79680000  0.53220000  0.69320000  1
  C  C75  1  0.80260000  0.93040000  0.87690000  1
  C  C76  1  0.80420000  0.76660000  0.24480000  1
  C  C77  1  0.82210000  0.53120000  0.24930000  1
  C  C78  1  0.84040000  0.05220000  0.92570000  1
  C  C79  1  0.85320000  0.86460000  0.54820000  1
  C  C80  1  0.87220000  0.06960000  0.62310000  1
  C  C81  1  0.87310000  0.76560000  0.79970000  1
  C  C82  1  0.89250000  0.76560000  0.29970000  1
  C  C83  1  0.89990000  0.64440000  0.30280000  1
  C  C84  1  0.90310000  0.90260000  0.06820000  1
  C  C85  1  0.91360000  0.89220000  0.85490000  1
  C  C86  1  0.91560000  0.97620000  0.38330000  1
  C  C87  1  0.92500000  0.65020000  0.69250000  1
  C  C88  1  0.92990000  0.18600000  0.46370000  1
  C  C89  1  0.93940000  0.02380000  0.11670000  1
  C  C90  1  0.96240000  0.76660000  0.74480000  1
  C  C91  1  0.97860000  0.89220000  0.35490000  1
  C  C92  1  0.98860000  0.13540000  0.95180000  1
  C  C93  1  0.99950000  0.90260000  0.56820000  1
  O  O94  1  0.01590000  0.30620000  0.49210000  1
  O  O95  1  0.18160000  0.58380000  0.42050000  1
  O  O96  1  0.21020000  0.86940000  0.54160000  1
  O  O97  1  0.23850000  0.79600000  0.00870000  1
  O  O98  1  0.29030000  0.30620000  0.99210000  1
  O  O99  1  0.34080000  0.13060000  0.95840000  1
  O  O100  1  0.34960000  0.70060000  0.85710000  1
  O  O101  1  0.35100000  0.70060000  0.35710000  1
  O  O102  1  0.40220000  0.58380000  0.92050000  1
  O  O103  1  0.41380000  0.99240000  0.06680000  1
  O  O104  1  0.42140000  0.00760000  0.43320000  1
  O  O105  1  0.44250000  0.20400000  0.49130000  1
  O  O106  1  0.55750000  0.79600000  0.50870000  1
  O  O107  1  0.57860000  0.99240000  0.56680000  1
  O  O108  1  0.58620000  0.00760000  0.93320000  1
  O  O109  1  0.59780000  0.41620000  0.07950000  1
  O  O110  1  0.64900000  0.29940000  0.64290000  1
  O  O111  1  0.65040000  0.29940000  0.14290000  1
  O  O112  1  0.65920000  0.86940000  0.04160000  1
  O  O113  1  0.70970000  0.69380000  0.00790000  1
  O  O114  1  0.76150000  0.20400000  0.99130000  1
  O  O115  1  0.78980000  0.13060000  0.45840000  1
  O  O116  1  0.81840000  0.41620000  0.57950000  1
  O  O117  1  0.98410000  0.69380000  0.50790000  1
