# generated using pymatgen
data_CuP2H27C35NCl
_symmetry_space_group_name_H-M   'P 1'
_cell_length_a   18.41000000
_cell_length_b   18.41000000
_cell_length_c   21.32100000
_cell_angle_alpha   90.00000000
_cell_angle_beta   90.00000000
_cell_angle_gamma   120.00000000
_symmetry_Int_Tables_number   1
_chemical_formula_structural   CuP2H27C35NCl
_chemical_formula_sum   'Cu6 P12 H162 C210 N6 Cl6'
_cell_volume   6258.14726842
_cell_formula_units_Z   6
loop_
 _symmetry_equiv_pos_site_id
 _symmetry_equiv_pos_as_xyz
  1  'x, y, z'
loop_
 _atom_site_type_symbol
 _atom_site_label
 _atom_site_symmetry_multiplicity
 _atom_site_fract_x
 _atom_site_fract_y
 _atom_site_fract_z
 _atom_site_occupancy
  Cu  Cu0  1  0.84390000  0.33650000  0.00848000  1
  Cu  Cu1  1  0.66350000  0.50740000  0.67514000  1
  Cu  Cu2  1  0.50740000  0.66350000  0.32486000  1
  Cu  Cu3  1  0.49260000  0.15610000  0.34181000  1
  Cu  Cu4  1  0.33650000  0.84390000  0.99152000  1
  Cu  Cu5  1  0.15610000  0.49260000  0.65819000  1
  P  P6  1  0.86100000  0.33120000  0.11349000  1
  P  P7  1  0.73470000  0.35440000  0.97342000  1
  P  P8  1  0.66880000  0.52980000  0.78016000  1
  P  P9  1  0.64560000  0.38030000  0.64008000  1
  P  P10  1  0.61970000  0.26530000  0.30675000  1
  P  P11  1  0.52980000  0.66880000  0.21984000  1
  P  P12  1  0.47020000  0.13900000  0.44682000  1
  P  P13  1  0.38030000  0.64560000  0.35992000  1
  P  P14  1  0.35440000  0.73470000  0.02658000  1
  P  P15  1  0.33120000  0.86100000  0.88651000  1
  P  P16  1  0.26530000  0.61970000  0.69325000  1
  P  P17  1  0.13900000  0.47020000  0.55318000  1
  H  H18  1  0.99980000  0.62810000  0.42057000  1
  H  H19  1  0.99430000  0.35280000  0.93550000  1
  H  H20  1  0.98620000  0.40400000  0.21760000  1
  H  H21  1  0.98340000  0.29110000  0.05940000  1
  H  H22  1  0.96620000  0.13700000  0.47027000  1
  H  H23  1  0.95880000  0.48950000  0.39407000  1
  H  H24  1  0.95560000  0.17410000  0.57367000  1
  H  H25  1  0.95010000  0.57810000  0.73207000  1
  H  H26  1  0.93970000  0.52130000  0.99350000  1
  H  H27  1  0.93880000  0.18550000  0.26540000  1
  H  H28  1  0.93240000  0.47870000  0.58313000  1
  H  H29  1  0.92460000  0.34830000  0.59233000  1
  H  H30  1  0.90430000  0.59940000  0.16470000  1
  H  H31  1  0.89580000  0.34920000  0.78757000  1
  H  H32  1  0.86950000  0.25070000  0.23320000  1
  H  H33  1  0.86300000  0.82920000  0.13693000  1
  H  H34  1  0.85720000  0.29600000  0.47680000  1
  H  H35  1  0.85030000  0.38810000  0.87627000  1
  H  H36  1  0.84940000  0.47270000  0.10970000  1
  H  H37  1  0.84710000  0.22510000  0.38220000  1
  H  H38  1  0.82920000  0.86300000  0.86307000  1
  H  H39  1  0.82590000  0.78150000  0.24033000  1
  H  H40  1  0.81500000  0.49150000  0.60603000  1
  H  H41  1  0.81450000  0.75330000  0.93207000  1
  H  H42  1  0.81060000  0.52300000  0.74557000  1
  H  H43  1  0.79940000  0.23070000  0.62433000  1
  H  H44  1  0.79910000  0.53320000  0.97987000  1
  H  H45  1  0.79520000  0.36780000  0.49110000  1
  H  H46  1  0.78150000  0.82590000  0.75967000  1
  H  H47  1  0.77730000  0.33570000  0.23390000  1
  H  H48  1  0.77490000  0.62200000  0.04887000  1
  H  H49  1  0.76930000  0.56870000  0.29100000  1
  H  H50  1  0.75650000  0.43850000  0.31390000  1
  H  H51  1  0.75330000  0.81450000  0.06793000  1
  H  H52  1  0.74930000  0.61880000  0.89987000  1
  H  H53  1  0.73410000  0.20090000  0.31320000  1
  H  H54  1  0.71240000  0.18940000  0.07890000  1
  H  H55  1  0.70890000  0.69230000  0.72607000  1
  H  H56  1  0.70400000  0.56120000  0.14347000  1
  H  H57  1  0.69600000  0.36350000  0.42040000  1
  H  H58  1  0.69510000  0.09570000  0.49803000  1
  H  H59  1  0.69230000  0.70890000  0.27393000  1
  H  H60  1  0.68200000  0.24350000  0.64723000  1
  H  H61  1  0.67650000  0.18500000  0.93937000  1
  H  H62  1  0.66750000  0.30400000  0.75373000  1
  H  H63  1  0.66430000  0.44160000  0.90057000  1
  H  H64  1  0.65170000  0.57630000  0.25900000  1
  H  H65  1  0.65080000  0.54660000  0.45423000  1
  H  H66  1  0.64720000  0.64150000  0.60217000  1
  H  H67  1  0.64150000  0.64720000  0.39783000  1
  H  H68  1  0.63650000  0.33250000  0.08707000  1
  H  H69  1  0.63220000  0.42740000  0.15777000  1
  H  H70  1  0.62830000  0.00020000  0.75390000  1
  H  H71  1  0.62810000  0.99980000  0.57943000  1
  H  H72  1  0.62800000  0.04990000  0.06540000  1
  H  H73  1  0.62330000  0.15060000  0.44303000  1
  H  H74  1  0.62200000  0.77490000  0.95113000  1
  H  H75  1  0.61880000  0.74930000  0.10013000  1
  H  H76  1  0.61190000  0.46220000  0.54293000  1
  H  H77  1  0.59940000  0.90430000  0.83530000  1
  H  H78  1  0.59600000  0.58220000  0.88427000  1
  H  H79  1  0.58220000  0.59600000  0.11573000  1
  H  H80  1  0.58160000  0.06030000  0.32683000  1
  H  H81  1  0.57810000  0.95010000  0.26793000  1
  H  H82  1  0.57630000  0.65170000  0.74100000  1
  H  H83  1  0.57260000  0.20480000  0.82443000  1
  H  H84  1  0.56870000  0.76930000  0.70900000  1
  H  H85  1  0.56150000  0.31800000  0.98057000  1
  H  H86  1  0.56120000  0.70400000  0.85653000  1
  H  H87  1  0.55840000  0.22270000  0.56723000  1
  H  H88  1  0.54660000  0.65080000  0.54577000  1
  H  H89  1  0.54630000  0.06760000  0.91647000  1
  H  H90  1  0.53780000  0.14970000  0.20960000  1
  H  H91  1  0.53320000  0.79910000  0.02013000  1
  H  H92  1  0.53070000  0.04120000  0.72740000  1
  H  H93  1  0.52730000  0.37670000  0.77637000  1
  H  H94  1  0.52300000  0.81060000  0.25443000  1
  H  H95  1  0.52130000  0.93970000  0.00650000  1
  H  H96  1  0.52130000  0.45370000  0.24980000  1
  H  H97  1  0.51050000  0.46930000  0.06073000  1
  H  H98  1  0.50850000  0.32350000  0.27270000  1
  H  H99  1  0.49150000  0.81500000  0.39397000  1
  H  H100  1  0.48950000  0.95880000  0.60593000  1
  H  H101  1  0.47870000  0.93240000  0.41687000  1
  H  H102  1  0.47870000  0.41840000  0.66017000  1
  H  H103  1  0.47700000  0.28760000  0.41223000  1
  H  H104  1  0.47270000  0.84940000  0.89030000  1
  H  H105  1  0.46930000  0.51050000  0.93927000  1
  H  H106  1  0.46680000  0.26590000  0.64653000  1
  H  H107  1  0.46220000  0.61190000  0.45707000  1
  H  H108  1  0.45370000  0.52130000  0.75020000  1
  H  H109  1  0.45340000  0.10420000  0.12090000  1
  H  H110  1  0.44160000  0.66430000  0.09943000  1
  H  H111  1  0.43880000  0.14280000  0.81013000  1
  H  H112  1  0.43850000  0.75650000  0.68610000  1
  H  H113  1  0.43130000  0.20060000  0.95767000  1
  H  H114  1  0.42740000  0.63220000  0.84223000  1
  H  H115  1  0.42370000  0.07540000  0.92567000  1
  H  H116  1  0.42190000  0.37200000  0.39873000  1
  H  H117  1  0.41840000  0.47870000  0.33983000  1
  H  H118  1  0.41780000  0.01380000  0.55093000  1
  H  H119  1  0.40400000  0.98620000  0.78240000  1
  H  H120  1  0.40060000  0.30490000  0.83137000  1
  H  H121  1  0.38810000  0.85030000  0.12373000  1
  H  H122  1  0.38120000  0.13050000  0.56653000  1
  H  H123  1  0.37800000  0.15290000  0.71553000  1
  H  H124  1  0.37670000  0.52730000  0.22363000  1
  H  H125  1  0.37200000  0.42190000  0.60127000  1
  H  H126  1  0.37190000  0.37170000  0.08723000  1
  H  H127  1  0.37170000  0.37190000  0.91277000  1
  H  H128  1  0.36780000  0.79520000  0.50890000  1
  H  H129  1  0.36350000  0.69600000  0.57960000  1
  H  H130  1  0.35850000  0.00570000  0.26883000  1
  H  H131  1  0.35280000  0.99430000  0.06450000  1
  H  H132  1  0.34920000  0.89580000  0.21243000  1
  H  H133  1  0.34830000  0.92460000  0.40767000  1
  H  H134  1  0.33570000  0.77730000  0.76610000  1
  H  H135  1  0.33250000  0.63650000  0.91293000  1
  H  H136  1  0.32350000  0.50850000  0.72730000  1
  H  H137  1  0.31800000  0.56150000  0.01943000  1
  H  H138  1  0.30770000  0.01660000  0.39273000  1
  H  H139  1  0.30490000  0.40060000  0.16863000  1
  H  H140  1  0.30400000  0.66750000  0.24627000  1
  H  H141  1  0.29600000  0.85720000  0.52320000  1
  H  H142  1  0.29110000  0.98340000  0.94060000  1
  H  H143  1  0.28760000  0.47700000  0.58777000  1
  H  H144  1  0.26590000  0.46680000  0.35347000  1
  H  H145  1  0.25070000  0.86950000  0.76680000  1
  H  H146  1  0.24670000  0.06120000  0.59873000  1
  H  H147  1  0.24350000  0.68200000  0.35277000  1
  H  H148  1  0.23070000  0.79940000  0.37567000  1
  H  H149  1  0.22510000  0.84710000  0.61780000  1
  H  H150  1  0.22270000  0.55840000  0.43277000  1
  H  H151  1  0.21850000  0.04440000  0.90700000  1
  H  H152  1  0.20480000  0.57260000  0.17557000  1
  H  H153  1  0.20090000  0.73410000  0.68680000  1
  H  H154  1  0.20060000  0.43130000  0.04233000  1
  H  H155  1  0.18940000  0.71240000  0.92110000  1
  H  H156  1  0.18550000  0.93880000  0.73460000  1
  H  H157  1  0.18500000  0.67650000  0.06063000  1
  H  H158  1  0.17410000  0.95560000  0.42633000  1
  H  H159  1  0.17080000  0.03380000  0.80360000  1
  H  H160  1  0.15290000  0.37800000  0.28447000  1
  H  H161  1  0.15060000  0.62330000  0.55697000  1
  H  H162  1  0.14970000  0.53780000  0.79040000  1
  H  H163  1  0.14280000  0.43880000  0.18987000  1
  H  H164  1  0.13700000  0.96620000  0.52973000  1
  H  H165  1  0.13050000  0.38120000  0.43347000  1
  H  H166  1  0.10420000  0.45340000  0.87910000  1
  H  H167  1  0.09570000  0.69510000  0.50197000  1
  H  H168  1  0.07540000  0.42370000  0.07433000  1
  H  H169  1  0.06760000  0.54630000  0.08353000  1
  H  H170  1  0.06120000  0.24670000  0.40127000  1
  H  H171  1  0.06030000  0.58160000  0.67317000  1
  H  H172  1  0.04990000  0.62800000  0.93460000  1
  H  H173  1  0.04440000  0.21850000  0.09300000  1
  H  H174  1  0.04120000  0.53070000  0.27260000  1
  H  H175  1  0.03380000  0.17080000  0.19640000  1
  H  H176  1  0.01660000  0.30770000  0.60727000  1
  H  H177  1  0.01380000  0.41780000  0.44907000  1
  H  H178  1  0.00570000  0.35850000  0.73117000  1
  H  H179  1  0.00020000  0.62830000  0.24610000  1
  C  C180  1  0.99770000  0.51660000  0.42717000  1
  C  C181  1  0.99750000  0.40550000  0.73157000  1
  C  C182  1  0.99720000  0.19370000  0.48397000  1
  C  C183  1  0.99030000  0.21740000  0.54517000  1
  C  C184  1  0.97790000  0.57690000  0.22380000  1
  C  C185  1  0.97190000  0.50590000  0.96770000  1
  C  C186  1  0.97140000  0.26720000  0.10020000  1
  C  C187  1  0.96960000  0.44370000  0.20680000  1
  C  C188  1  0.96050000  0.53250000  0.73327000  1
  C  C189  1  0.94640000  0.20620000  0.22360000  1
  C  C190  1  0.93010000  0.39980000  0.76537000  1
  C  C191  1  0.92100000  0.55970000  0.17540000  1
  C  C192  1  0.91260000  0.42640000  0.15850000  1
  C  C193  1  0.91160000  0.27410000  0.13940000  1
  C  C194  1  0.91010000  0.45970000  0.76907000  1
  C  C195  1  0.90480000  0.24340000  0.20440000  1
  C  C196  1  0.88830000  0.48450000  0.14280000  1
  C  C197  1  0.88150000  0.43090000  0.59613000  1
  C  C198  1  0.87690000  0.35350000  0.60153000  1
  C  C199  1  0.84060000  0.45590000  0.80437000  1
  C  C200  1  0.82050000  0.29470000  0.44500000  1
  C  C201  1  0.81880000  0.41270000  0.86147000  1
  C  C202  1  0.81200000  0.24810000  0.39040000  1
  C  C203  1  0.81170000  0.43850000  0.60973000  1
  C  C204  1  0.80630000  0.80350000  0.15063000  1
  C  C205  1  0.80350000  0.80630000  0.84937000  1
  C  C206  1  0.80260000  0.28370000  0.62063000  1
  C  C207  1  0.79460000  0.49150000  0.78337000  1
  C  C208  1  0.79380000  0.74020000  0.89027000  1
  C  C209  1  0.78270000  0.33470000  0.45430000  1
  C  C210  1  0.78260000  0.77290000  0.21183000  1
  C  C211  1  0.77290000  0.78260000  0.78817000  1
  C  C212  1  0.76250000  0.51010000  0.01477000  1
  C  C213  1  0.75920000  0.27740000  0.15080000  1
  C  C214  1  0.75660000  0.66140000  0.87107000  1
  C  C215  1  0.75280000  0.40490000  0.89687000  1
  C  C216  1  0.75190000  0.56390000  0.05707000  1
  C  C217  1  0.74760000  0.23750000  0.34810000  1
  C  C218  1  0.74020000  0.79380000  0.10973000  1
  C  C219  1  0.73740000  0.36870000  0.62873000  1
  C  C220  1  0.73590000  0.29290000  0.20810000  1
  C  C221  1  0.73280000  0.29120000  0.63423000  1
  C  C222  1  0.73280000  0.70420000  0.76687000  1
  C  C223  1  0.72590000  0.63750000  0.80607000  1
  C  C224  1  0.72360000  0.33240000  0.41300000  1
  C  C225  1  0.72260000  0.48180000  0.81747000  1
  C  C226  1  0.72050000  0.42630000  0.02427000  1
  C  C227  1  0.71630000  0.51890000  0.28730000  1
  C  C228  1  0.70880000  0.44160000  0.30090000  1
  C  C229  1  0.70710000  0.44300000  0.87477000  1
  C  C230  1  0.70580000  0.27950000  0.35760000  1
  C  C231  1  0.70530000  0.52580000  0.11167000  1
  C  C232  1  0.70420000  0.73280000  0.23313000  1
  C  C233  1  0.69690000  0.20540000  0.11670000  1
  C  C234  1  0.66760000  0.39120000  0.07967000  1
  C  C235  1  0.66530000  0.44800000  0.12097000  1
  C  C236  1  0.66140000  0.75660000  0.12893000  1
  C  C237  1  0.65210000  0.24720000  0.23020000  1
  C  C238  1  0.64650000  0.52340000  0.26820000  1
  C  C239  1  0.63870000  0.07900000  0.50873000  1
  C  C240  1  0.63750000  0.72590000  0.19393000  1
  C  C241  1  0.63130000  0.26260000  0.96207000  1
  C  C242  1  0.63130000  0.36870000  0.29540000  1
  C  C243  1  0.62680000  0.18830000  0.94307000  1
  C  C244  1  0.61530000  0.15940000  0.13770000  1
  C  C245  1  0.60880000  0.27640000  0.74633000  1
  C  C246  1  0.60020000  0.53030000  0.43203000  1
  C  C247  1  0.59900000  0.02210000  0.55713000  1
  C  C248  1  0.59620000  0.11170000  0.47613000  1
  C  C249  1  0.59510000  0.34790000  0.56353000  1
  C  C250  1  0.59450000  0.59200000  0.39823000  1
  C  C251  1  0.59390000  0.18120000  0.19480000  1
  C  C252  1  0.59200000  0.59450000  0.60177000  1
  C  C253  1  0.58730000  0.40610000  0.52813000  1
  C  C254  1  0.57690000  0.97790000  0.77620000  1
  C  C255  1  0.57370000  0.29420000  0.69093000  1
  C  C256  1  0.57360000  0.48620000  0.82517000  1
  C  C257  1  0.57200000  0.03950000  0.06660000  1
  C  C258  1  0.56910000  0.45060000  0.26280000  1
  C  C259  1  0.56390000  0.75190000  0.94293000  1
  C  C260  1  0.56150000  0.37320000  0.27640000  1
  C  C261  1  0.55970000  0.92100000  0.82460000  1
  C  C262  1  0.55840000  0.26720000  0.96757000  1
  C  C263  1  0.55700000  0.26410000  0.54143000  1
  C  C264  1  0.55630000  0.52590000  0.87347000  1
  C  C265  1  0.55200000  0.21730000  0.78763000  1
  C  C266  1  0.54960000  0.08990000  0.10240000  1
  C  C267  1  0.54940000  0.11850000  0.92947000  1
  C  C268  1  0.54410000  0.38470000  0.47103000  1
  C  C269  1  0.54030000  0.45040000  0.43573000  1
  C  C270  1  0.53400000  0.02810000  0.30103000  1
  C  C271  1  0.53250000  0.96050000  0.26673000  1
  C  C272  1  0.53030000  0.60020000  0.56797000  1
  C  C273  1  0.52590000  0.55630000  0.12653000  1
  C  C274  1  0.52580000  0.70530000  0.88833000  1
  C  C275  1  0.52340000  0.64650000  0.73180000  1
  C  C276  1  0.51890000  0.71630000  0.71270000  1
  C  C277  1  0.51890000  0.00230000  0.76050000  1
  C  C278  1  0.51820000  0.24080000  0.48413000  1
  C  C279  1  0.51660000  0.99770000  0.57283000  1
  C  C280  1  0.51550000  0.40380000  0.80947000  1
  C  C281  1  0.51380000  0.08740000  0.49183000  1
  C  C282  1  0.51010000  0.76250000  0.98523000  1
  C  C283  1  0.50850000  0.30310000  0.45003000  1
  C  C284  1  0.50590000  0.97190000  0.03230000  1
  C  C285  1  0.49410000  0.46600000  0.63437000  1
  C  C286  1  0.49150000  0.79460000  0.21663000  1
  C  C287  1  0.48990000  0.25240000  0.68143000  1
  C  C288  1  0.48620000  0.57360000  0.17483000  1
  C  C289  1  0.48450000  0.88830000  0.85720000  1
  C  C290  1  0.48340000  0.48110000  0.09383000  1
  C  C291  1  0.48180000  0.72260000  0.18253000  1
  C  C292  1  0.48110000  0.48340000  0.90617000  1
  C  C293  1  0.48110000  0.19740000  0.95397000  1
  C  C294  1  0.47660000  0.12310000  0.93487000  1
  C  C295  1  0.47420000  0.17950000  0.77833000  1
  C  C296  1  0.47410000  0.03040000  0.54013000  1
  C  C297  1  0.46970000  0.06990000  0.09870000  1
  C  C298  1  0.46750000  0.42800000  0.39993000  1
  C  C299  1  0.46600000  0.49410000  0.36563000  1
  C  C300  1  0.45970000  0.91010000  0.23093000  1
  C  C301  1  0.45590000  0.84060000  0.19563000  1
  C  C302  1  0.45060000  0.56910000  0.73720000  1
  C  C303  1  0.45040000  0.54030000  0.56427000  1
  C  C304  1  0.44800000  0.66530000  0.87903000  1
  C  C305  1  0.44370000  0.96960000  0.79320000  1
  C  C306  1  0.44300000  0.70710000  0.12523000  1
  C  C307  1  0.44160000  0.70880000  0.69910000  1
  C  C308  1  0.44030000  0.36130000  0.84207000  1
  C  C309  1  0.43850000  0.81170000  0.39027000  1
  C  C310  1  0.43610000  0.18800000  0.72373000  1
  C  C311  1  0.43090000  0.88150000  0.40387000  1
  C  C312  1  0.42800000  0.46750000  0.60007000  1
  C  C313  1  0.42640000  0.91260000  0.84150000  1
  C  C314  1  0.42630000  0.72050000  0.97573000  1
  C  C315  1  0.42310000  0.40100000  0.89047000  1
  C  C316  1  0.41270000  0.81880000  0.13853000  1
  C  C317  1  0.40800000  0.00250000  0.06490000  1
  C  C318  1  0.40610000  0.58730000  0.47187000  1
  C  C319  1  0.40550000  0.99750000  0.26843000  1
  C  C320  1  0.40490000  0.75280000  0.10313000  1
  C  C321  1  0.40380000  0.51550000  0.19053000  1
  C  C322  1  0.40100000  0.42310000  0.10953000  1
  C  C323  1  0.39980000  0.93010000  0.23463000  1
  C  C324  1  0.39120000  0.66760000  0.92033000  1
  C  C325  1  0.38470000  0.54410000  0.52897000  1
  C  C326  1  0.37320000  0.56150000  0.72360000  1
  C  C327  1  0.36870000  0.63130000  0.70460000  1
  C  C328  1  0.36870000  0.73740000  0.37127000  1
  C  C329  1  0.36250000  0.08840000  0.47273000  1
  C  C330  1  0.36130000  0.44030000  0.15793000  1
  C  C331  1  0.35350000  0.87690000  0.39847000  1
  C  C332  1  0.34790000  0.59510000  0.43647000  1
  C  C333  1  0.33860000  0.09520000  0.53773000  1
  C  C334  1  0.33470000  0.78270000  0.54570000  1
  C  C335  1  0.33240000  0.72360000  0.58700000  1
  C  C336  1  0.30310000  0.50850000  0.54997000  1
  C  C337  1  0.29580000  0.02860000  0.43353000  1
  C  C338  1  0.29470000  0.82050000  0.55500000  1
  C  C339  1  0.29420000  0.57370000  0.30907000  1
  C  C340  1  0.29290000  0.73590000  0.79190000  1
  C  C341  1  0.29120000  0.73280000  0.36577000  1
  C  C342  1  0.28370000  0.80260000  0.37937000  1
  C  C343  1  0.27950000  0.70580000  0.64240000  1
  C  C344  1  0.27740000  0.75920000  0.84920000  1
  C  C345  1  0.27640000  0.60880000  0.25367000  1
  C  C346  1  0.27410000  0.91160000  0.86060000  1
  C  C347  1  0.26720000  0.55840000  0.03243000  1
  C  C348  1  0.26720000  0.97140000  0.89980000  1
  C  C349  1  0.26410000  0.55700000  0.45857000  1
  C  C350  1  0.26260000  0.63130000  0.03793000  1
  C  C351  1  0.25980000  0.05360000  0.55693000  1
  C  C352  1  0.25240000  0.48990000  0.31857000  1
  C  C353  1  0.24810000  0.81200000  0.60960000  1
  C  C354  1  0.24720000  0.65210000  0.76980000  1
  C  C355  1  0.24340000  0.90480000  0.79560000  1
  C  C356  1  0.24080000  0.51820000  0.51587000  1
  C  C357  1  0.23750000  0.74760000  0.65190000  1
  C  C358  1  0.22710000  0.00970000  0.87850000  1
  C  C359  1  0.21740000  0.99030000  0.45483000  1
  C  C360  1  0.21730000  0.55200000  0.21237000  1
  C  C361  1  0.20620000  0.94640000  0.77640000  1
  C  C362  1  0.20540000  0.69690000  0.88330000  1
  C  C363  1  0.19740000  0.48110000  0.04603000  1
  C  C364  1  0.19650000  0.00280000  0.81730000  1
  C  C365  1  0.19370000  0.99720000  0.51603000  1
  C  C366  1  0.18830000  0.62680000  0.05693000  1
  C  C367  1  0.18800000  0.43610000  0.27627000  1
  C  C368  1  0.18120000  0.59390000  0.80520000  1
  C  C369  1  0.17950000  0.47420000  0.22167000  1
  C  C370  1  0.15940000  0.61530000  0.86230000  1
  C  C371  1  0.12310000  0.47660000  0.06513000  1
  C  C372  1  0.11850000  0.54940000  0.07053000  1
  C  C373  1  0.11170000  0.59620000  0.52387000  1
  C  C374  1  0.09520000  0.33860000  0.46227000  1
  C  C375  1  0.08990000  0.54960000  0.89760000  1
  C  C376  1  0.08840000  0.36250000  0.52727000  1
  C  C377  1  0.08740000  0.51380000  0.50817000  1
  C  C378  1  0.07900000  0.63870000  0.49127000  1
  C  C379  1  0.06990000  0.46970000  0.90130000  1
  C  C380  1  0.05360000  0.25980000  0.44307000  1
  C  C381  1  0.03950000  0.57200000  0.93340000  1
  C  C382  1  0.03040000  0.47410000  0.45987000  1
  C  C383  1  0.02860000  0.29580000  0.56647000  1
  C  C384  1  0.02810000  0.53400000  0.69897000  1
  C  C385  1  0.02210000  0.59900000  0.44287000  1
  C  C386  1  0.00970000  0.22710000  0.12150000  1
  C  C387  1  0.00280000  0.19650000  0.18270000  1
  C  C388  1  0.00250000  0.40800000  0.93510000  1
  C  C389  1  0.00230000  0.51890000  0.23950000  1
  N  N390  1  0.94890000  0.42290000  0.96710000  1
  N  N391  1  0.57710000  0.52600000  0.63377000  1
  N  N392  1  0.52600000  0.57710000  0.36623000  1
  N  N393  1  0.47400000  0.05110000  0.30043000  1
  N  N394  1  0.42290000  0.94890000  0.03290000  1
  N  N395  1  0.05110000  0.47400000  0.69957000  1
  Cl  Cl396  1  0.83790000  0.21660000  0.96077000  1
  Cl  Cl397  1  0.78340000  0.62130000  0.62743000  1
  Cl  Cl398  1  0.62130000  0.78340000  0.37257000  1
  Cl  Cl399  1  0.37870000  0.16210000  0.29410000  1
  Cl  Cl400  1  0.21660000  0.83790000  0.03923000  1
  Cl  Cl401  1  0.16210000  0.37870000  0.70590000  1
