# generated using pymatgen
data_CePH3C3O8
_symmetry_space_group_name_H-M   'P 1'
_cell_length_a   7.22600000
_cell_length_b   10.27450000
_cell_length_c   13.29180000
_cell_angle_alpha   90.00000000
_cell_angle_beta   90.00000000
_cell_angle_gamma   99.49300000
_symmetry_Int_Tables_number   1
_chemical_formula_structural   CePH3C3O8
_chemical_formula_sum   'Ce4 P4 H12 C12 O32'
_cell_volume   973.31635345
_cell_formula_units_Z   4
loop_
 _symmetry_equiv_pos_site_id
 _symmetry_equiv_pos_as_xyz
  1  'x, y, z'
loop_
 _atom_site_type_symbol
 _atom_site_label
 _atom_site_symmetry_multiplicity
 _atom_site_fract_x
 _atom_site_fract_y
 _atom_site_fract_z
 _atom_site_occupancy
  Ce  Ce0  1  0.16144000  0.28177000  0.90556000  1
  Ce  Ce1  1  0.16144000  0.78177000  0.59444000  1
  Ce  Ce2  1  0.83856000  0.21823000  0.40556000  1
  Ce  Ce3  1  0.83856000  0.71823000  0.09444000  1
  P  P4  1  0.21372000  0.42755000  0.55061000  1
  P  P5  1  0.21372000  0.92755000  0.94939000  1
  P  P6  1  0.78628000  0.07245000  0.05061000  1
  P  P7  1  0.78628000  0.57245000  0.44939000  1
  H  H8  1  0.05900000  0.08610000  0.14870000  1
  H  H9  1  0.05900000  0.58610000  0.35130000  1
  H  H10  1  0.12950000  0.49870000  0.75700000  1
  H  H11  1  0.12950000  0.99870000  0.74300000  1
  H  H12  1  0.40760000  0.30950000  0.54650000  1
  H  H13  1  0.40760000  0.80950000  0.95350000  1
  H  H14  1  0.59240000  0.19050000  0.04650000  1
  H  H15  1  0.59240000  0.69050000  0.45350000  1
  H  H16  1  0.87050000  0.00130000  0.25700000  1
  H  H17  1  0.87050000  0.50130000  0.24300000  1
  H  H18  1  0.94100000  0.41390000  0.64870000  1
  H  H19  1  0.94100000  0.91390000  0.85130000  1
  C  C20  1  0.00110000  0.22550000  0.66270000  1
  C  C21  1  0.00110000  0.72550000  0.83730000  1
  C  C22  1  0.05490000  0.37450000  0.65590000  1
  C  C23  1  0.05490000  0.87450000  0.84410000  1
  C  C24  1  0.45400000  0.05490000  0.52530000  1
  C  C25  1  0.45400000  0.55490000  0.97470000  1
  C  C26  1  0.54600000  0.44510000  0.02530000  1
  C  C27  1  0.54600000  0.94510000  0.47470000  1
  C  C28  1  0.94510000  0.12550000  0.15590000  1
  C  C29  1  0.94510000  0.62550000  0.34410000  1
  C  C30  1  0.99890000  0.27450000  0.16270000  1
  C  C31  1  0.99890000  0.77450000  0.33730000  1
  O  O32  1  0.03960000  0.16930000  0.74300000  1
  O  O33  1  0.03960000  0.66930000  0.75700000  1
  O  O34  1  0.07930000  0.33370000  0.08803000  1
  O  O35  1  0.07930000  0.83370000  0.41197000  1
  O  O36  1  0.13230000  0.36810000  0.45403000  1
  O  O37  1  0.13230000  0.86810000  0.04597000  1
  O  O38  1  0.15170000  0.42450000  0.74519000  1
  O  O39  1  0.15170000  0.92450000  0.75481000  1
  O  O40  1  0.25620000  0.07530000  0.94380000  1
  O  O41  1  0.25620000  0.57530000  0.55620000  1
  O  O42  1  0.30870000  0.01940000  0.57520000  1
  O  O43  1  0.30870000  0.51940000  0.92480000  1
  O  O44  1  0.39630000  0.37310000  0.58180000  1
  O  O45  1  0.39630000  0.87310000  0.91820000  1
  O  O46  1  0.46760000  0.32820000  0.00890000  1
  O  O47  1  0.46760000  0.82820000  0.49110000  1
  O  O48  1  0.53240000  0.17180000  0.50890000  1
  O  O49  1  0.53240000  0.67180000  0.99110000  1
  O  O50  1  0.60370000  0.12690000  0.08180000  1
  O  O51  1  0.60370000  0.62690000  0.41820000  1
  O  O52  1  0.69130000  0.48060000  0.07520000  1
  O  O53  1  0.69130000  0.98060000  0.42480000  1
  O  O54  1  0.74380000  0.42470000  0.44380000  1
  O  O55  1  0.74380000  0.92470000  0.05620000  1
  O  O56  1  0.84830000  0.07550000  0.24519000  1
  O  O57  1  0.84830000  0.57550000  0.25481000  1
  O  O58  1  0.86770000  0.13190000  0.95403000  1
  O  O59  1  0.86770000  0.63190000  0.54597000  1
  O  O60  1  0.92070000  0.16630000  0.58803000  1
  O  O61  1  0.92070000  0.66630000  0.91197000  1
  O  O62  1  0.96040000  0.33070000  0.24300000  1
  O  O63  1  0.96040000  0.83070000  0.25700000  1
