# generated using pymatgen
data_CdH28C37(N2O3)2
_symmetry_space_group_name_H-M   'P 1'
_cell_length_a   10.47590000
_cell_length_b   28.54800000
_cell_length_c   33.01700000
_cell_angle_alpha   90.00000000
_cell_angle_beta   90.00000000
_cell_angle_gamma   97.28800000
_symmetry_Int_Tables_number   1
_chemical_formula_structural   CdH28C37(N2O3)2
_chemical_formula_sum   'Cd8 H224 C296 N32 O48'
_cell_volume   9794.48806329
_cell_formula_units_Z   8
loop_
 _symmetry_equiv_pos_site_id
 _symmetry_equiv_pos_as_xyz
  1  'x, y, z'
loop_
 _atom_site_type_symbol
 _atom_site_label
 _atom_site_symmetry_multiplicity
 _atom_site_fract_x
 _atom_site_fract_y
 _atom_site_fract_z
 _atom_site_occupancy
  Cd  Cd0  1  0.91729000  0.67490000  0.34489000  1
  Cd  Cd1  1  0.91729000  0.17490000  0.15511000  1
  Cd  Cd2  1  0.90536000  0.30324000  0.91282000  1
  Cd  Cd3  1  0.90536000  0.80324000  0.58718000  1
  Cd  Cd4  1  0.09464000  0.19676000  0.41282000  1
  Cd  Cd5  1  0.09464000  0.69676000  0.08718000  1
  Cd  Cd6  1  0.08271000  0.82510000  0.84489000  1
  Cd  Cd7  1  0.08271000  0.32510000  0.65511000  1
  H  H8  1  0.99330000  0.20520000  0.95530000  1
  H  H9  1  0.99330000  0.70520000  0.54470000  1
  H  H10  1  0.98850000  0.23850000  0.83210000  1
  H  H11  1  0.98850000  0.73850000  0.66790000  1
  H  H12  1  0.98510000  0.99090000  0.31280000  1
  H  H13  1  0.98510000  0.49090000  0.18720000  1
  H  H14  1  0.98040000  0.57940000  0.28560000  1
  H  H15  1  0.98040000  0.07940000  0.21440000  1
  H  H16  1  0.97910000  0.87530000  0.41160000  1
  H  H17  1  0.97910000  0.37530000  0.08840000  1
  H  H18  1  0.91930000  0.16910000  0.49880000  1
  H  H19  1  0.91930000  0.66910000  0.00120000  1
  H  H20  1  0.91890000  0.84470000  0.99250000  1
  H  H21  1  0.91890000  0.34470000  0.50750000  1
  H  H22  1  0.91330000  0.04630000  0.46180000  1
  H  H23  1  0.91330000  0.54630000  0.03820000  1
  H  H24  1  0.90690000  0.69120000  0.86020000  1
  H  H25  1  0.90690000  0.19120000  0.63980000  1
  H  H26  1  0.90630000  0.33060000  0.34100000  1
  H  H27  1  0.90630000  0.83060000  0.15900000  1
  H  H28  1  0.90000000  0.41010000  0.35090000  1
  H  H29  1  0.90000000  0.91010000  0.14910000  1
  H  H30  1  0.89070000  0.41500000  0.77620000  1
  H  H31  1  0.89070000  0.91500000  0.72380000  1
  H  H32  1  0.89020000  0.81950000  0.95070000  1
  H  H33  1  0.89020000  0.31950000  0.54930000  1
  H  H34  1  0.88930000  0.78730000  0.76920000  1
  H  H35  1  0.88930000  0.28730000  0.73080000  1
  H  H36  1  0.88200000  0.76740000  0.41070000  1
  H  H37  1  0.88200000  0.26740000  0.08930000  1
  H  H38  1  0.87440000  0.23520000  0.27600000  1
  H  H39  1  0.87440000  0.73520000  0.22400000  1
  H  H40  1  0.86630000  0.13290000  0.35590000  1
  H  H41  1  0.86630000  0.63290000  0.14410000  1
  H  H42  1  0.85610000  0.06380000  0.78390000  1
  H  H43  1  0.85610000  0.56380000  0.71610000  1
  H  H44  1  0.84940000  0.01710000  0.26650000  1
  H  H45  1  0.84940000  0.51710000  0.23350000  1
  H  H46  1  0.84840000  0.84720000  0.46250000  1
  H  H47  1  0.84840000  0.34720000  0.03750000  1
  H  H48  1  0.83500000  0.58440000  0.87350000  1
  H  H49  1  0.83500000  0.08440000  0.62650000  1
  H  H50  1  0.83060000  0.54470000  0.84080000  1
  H  H51  1  0.83060000  0.04470000  0.65920000  1
  H  H52  1  0.82980000  0.43720000  0.85780000  1
  H  H53  1  0.82980000  0.93720000  0.64220000  1
  H  H54  1  0.82570000  0.72400000  0.95730000  1
  H  H55  1  0.82570000  0.22400000  0.54270000  1
  H  H56  1  0.81190000  0.50540000  0.76320000  1
  H  H57  1  0.81190000  0.00540000  0.73680000  1
  H  H58  1  0.81130000  0.33450000  0.82350000  1
  H  H59  1  0.81130000  0.83450000  0.67650000  1
  H  H60  1  0.79870000  0.97840000  0.49930000  1
  H  H61  1  0.79870000  0.81750000  0.27030000  1
  H  H62  1  0.79870000  0.31750000  0.22970000  1
  H  H63  1  0.79870000  0.47840000  0.00070000  1
  H  H64  1  0.79410000  0.14640000  0.89830000  1
  H  H65  1  0.79410000  0.64640000  0.60170000  1
  H  H66  1  0.78030000  0.28800000  0.79800000  1
  H  H67  1  0.78030000  0.78800000  0.70200000  1
  H  H68  1  0.77800000  0.76240000  0.47570000  1
  H  H69  1  0.77800000  0.26240000  0.02430000  1
  H  H70  1  0.77710000  0.14610000  0.25380000  1
  H  H71  1  0.77710000  0.64610000  0.24620000  1
  H  H72  1  0.77180000  0.63360000  0.43050000  1
  H  H73  1  0.77180000  0.13360000  0.06950000  1
  H  H74  1  0.75670000  0.10900000  0.28900000  1
  H  H75  1  0.75670000  0.60900000  0.21100000  1
  H  H76  1  0.75590000  0.39590000  0.99440000  1
  H  H77  1  0.75590000  0.89590000  0.50560000  1
  H  H78  1  0.73800000  0.53940000  0.39240000  1
  H  H79  1  0.73800000  0.03940000  0.10760000  1
  H  H80  1  0.72910000  0.33050000  0.45790000  1
  H  H81  1  0.72910000  0.83050000  0.04210000  1
  H  H82  1  0.72310000  0.07190000  0.83810000  1
  H  H83  1  0.72310000  0.57190000  0.66190000  1
  H  H84  1  0.71730000  0.38430000  0.26230000  1
  H  H85  1  0.71730000  0.88430000  0.23770000  1
  H  H86  1  0.71700000  0.43810000  0.37030000  1
  H  H87  1  0.71700000  0.93810000  0.12970000  1
  H  H88  1  0.71620000  0.46500000  0.27170000  1
  H  H89  1  0.71620000  0.96500000  0.22830000  1
  H  H90  1  0.71370000  0.28020000  0.33760000  1
  H  H91  1  0.71370000  0.78020000  0.16240000  1
  H  H92  1  0.70560000  0.18780000  0.97490000  1
  H  H93  1  0.70560000  0.68780000  0.52510000  1
  H  H94  1  0.68990000  0.13800000  0.99570000  1
  H  H95  1  0.68990000  0.63800000  0.50430000  1
  H  H96  1  0.67990000  0.81090000  0.92800000  1
  H  H97  1  0.67990000  0.31090000  0.57200000  1
  H  H98  1  0.63560000  0.37150000  0.84210000  1
  H  H99  1  0.63560000  0.87150000  0.65790000  1
  H  H100  1  0.63270000  0.45210000  0.75660000  1
  H  H101  1  0.63270000  0.95210000  0.74340000  1
  H  H102  1  0.61230000  0.69310000  0.26210000  1
  H  H103  1  0.61230000  0.19310000  0.23790000  1
  H  H104  1  0.61140000  0.05360000  0.90230000  1
  H  H105  1  0.61140000  0.55360000  0.59770000  1
  H  H106  1  0.59710000  0.79170000  0.75600000  1
  H  H107  1  0.59710000  0.29170000  0.74400000  1
  H  H108  1  0.56980000  0.11330000  0.33620000  1
  H  H109  1  0.56980000  0.61330000  0.16380000  1
  H  H110  1  0.56350000  0.57890000  0.28080000  1
  H  H111  1  0.56350000  0.07890000  0.21920000  1
  H  H112  1  0.53530000  0.45240000  0.41280000  1
  H  H113  1  0.53530000  0.95240000  0.08720000  1
  H  H114  1  0.53100000  0.68200000  0.43570000  1
  H  H115  1  0.53100000  0.18200000  0.06430000  1
  H  H116  1  0.51510000  0.23450000  0.85680000  1
  H  H117  1  0.51510000  0.73450000  0.64320000  1
  H  H118  1  0.51260000  0.32970000  0.44780000  1
  H  H119  1  0.51260000  0.82970000  0.05220000  1
  H  H120  1  0.48740000  0.17030000  0.94780000  1
  H  H121  1  0.48740000  0.67030000  0.55220000  1
  H  H122  1  0.48490000  0.26550000  0.35680000  1
  H  H123  1  0.48490000  0.76550000  0.14320000  1
  H  H124  1  0.46900000  0.81800000  0.93570000  1
  H  H125  1  0.46900000  0.31800000  0.56430000  1
  H  H126  1  0.46470000  0.04760000  0.91280000  1
  H  H127  1  0.46470000  0.54760000  0.58720000  1
  H  H128  1  0.43650000  0.92110000  0.78080000  1
  H  H129  1  0.43650000  0.42110000  0.71920000  1
  H  H130  1  0.43020000  0.38670000  0.83620000  1
  H  H131  1  0.43020000  0.88670000  0.66380000  1
  H  H132  1  0.40290000  0.70830000  0.25600000  1
  H  H133  1  0.40290000  0.20830000  0.24400000  1
  H  H134  1  0.38860000  0.44640000  0.40230000  1
  H  H135  1  0.38860000  0.94640000  0.09770000  1
  H  H136  1  0.38770000  0.80690000  0.76210000  1
  H  H137  1  0.38770000  0.30690000  0.73790000  1
  H  H138  1  0.36730000  0.04790000  0.25660000  1
  H  H139  1  0.36730000  0.54790000  0.24340000  1
  H  H140  1  0.36440000  0.12850000  0.34210000  1
  H  H141  1  0.36440000  0.62850000  0.15790000  1
  H  H142  1  0.32010000  0.68910000  0.42800000  1
  H  H143  1  0.32010000  0.18910000  0.07200000  1
  H  H144  1  0.31010000  0.36200000  0.49570000  1
  H  H145  1  0.31010000  0.86200000  0.00430000  1
  H  H146  1  0.29440000  0.31220000  0.47490000  1
  H  H147  1  0.29440000  0.81220000  0.02510000  1
  H  H148  1  0.28630000  0.21980000  0.83760000  1
  H  H149  1  0.28630000  0.71980000  0.66240000  1
  H  H150  1  0.28380000  0.03500000  0.77170000  1
  H  H151  1  0.28380000  0.53500000  0.72830000  1
  H  H152  1  0.28300000  0.06190000  0.87030000  1
  H  H153  1  0.28300000  0.56190000  0.62970000  1
  H  H154  1  0.28270000  0.11570000  0.76230000  1
  H  H155  1  0.28270000  0.61570000  0.73770000  1
  H  H156  1  0.27690000  0.42810000  0.33810000  1
  H  H157  1  0.27690000  0.92810000  0.16190000  1
  H  H158  1  0.27090000  0.16950000  0.95790000  1
  H  H159  1  0.27090000  0.66950000  0.54210000  1
  H  H160  1  0.26200000  0.96060000  0.89240000  1
  H  H161  1  0.26200000  0.46060000  0.60760000  1
  H  H162  1  0.24410000  0.10410000  0.49440000  1
  H  H163  1  0.24410000  0.60410000  0.00560000  1
  H  H164  1  0.24330000  0.39100000  0.78900000  1
  H  H165  1  0.24330000  0.89100000  0.71100000  1
  H  H166  1  0.22820000  0.86640000  0.93050000  1
  H  H167  1  0.22820000  0.36640000  0.56950000  1
  H  H168  1  0.22290000  0.35390000  0.75380000  1
  H  H169  1  0.22290000  0.85390000  0.74620000  1
  H  H170  1  0.22200000  0.73760000  0.97570000  1
  H  H171  1  0.22200000  0.23760000  0.52430000  1
  H  H172  1  0.21970000  0.21200000  0.29800000  1
  H  H173  1  0.21970000  0.71200000  0.20200000  1
  H  H174  1  0.20590000  0.35360000  0.39830000  1
  H  H175  1  0.20590000  0.85360000  0.10170000  1
  H  H176  1  0.20130000  0.52160000  0.99930000  1
  H  H177  1  0.20130000  0.68250000  0.77030000  1
  H  H178  1  0.20130000  0.18250000  0.72970000  1
  H  H179  1  0.20130000  0.02160000  0.50070000  1
  H  H180  1  0.18870000  0.16550000  0.32350000  1
  H  H181  1  0.18870000  0.66550000  0.17650000  1
  H  H182  1  0.18810000  0.99460000  0.26320000  1
  H  H183  1  0.18810000  0.49460000  0.23680000  1
  H  H184  1  0.17430000  0.77600000  0.45730000  1
  H  H185  1  0.17430000  0.27600000  0.04270000  1
  H  H186  1  0.17020000  0.06280000  0.35780000  1
  H  H187  1  0.17020000  0.56280000  0.14220000  1
  H  H188  1  0.16940000  0.95530000  0.34080000  1
  H  H189  1  0.16940000  0.45530000  0.15920000  1
  H  H190  1  0.16500000  0.91560000  0.37350000  1
  H  H191  1  0.16500000  0.41560000  0.12650000  1
  H  H192  1  0.15160000  0.65280000  0.96250000  1
  H  H193  1  0.15160000  0.15280000  0.53750000  1
  H  H194  1  0.15060000  0.48290000  0.76650000  1
  H  H195  1  0.15060000  0.98290000  0.73350000  1
  H  H196  1  0.14390000  0.43620000  0.28390000  1
  H  H197  1  0.14390000  0.93620000  0.21610000  1
  H  H198  1  0.13370000  0.36710000  0.85590000  1
  H  H199  1  0.13370000  0.86710000  0.64410000  1
  H  H200  1  0.12560000  0.26480000  0.77600000  1
  H  H201  1  0.12560000  0.76480000  0.72400000  1
  H  H202  1  0.11800000  0.73260000  0.91070000  1
  H  H203  1  0.11800000  0.23260000  0.58930000  1
  H  H204  1  0.11070000  0.71270000  0.26920000  1
  H  H205  1  0.11070000  0.21270000  0.23080000  1
  H  H206  1  0.10980000  0.68050000  0.45070000  1
  H  H207  1  0.10980000  0.18050000  0.04930000  1
  H  H208  1  0.10930000  0.08500000  0.27620000  1
  H  H209  1  0.10930000  0.58500000  0.22380000  1
  H  H210  1  0.10000000  0.08990000  0.85090000  1
  H  H211  1  0.10000000  0.58990000  0.64910000  1
  H  H212  1  0.09370000  0.16940000  0.84100000  1
  H  H213  1  0.09370000  0.66940000  0.65900000  1
  H  H214  1  0.09310000  0.80880000  0.36020000  1
  H  H215  1  0.09310000  0.30880000  0.13980000  1
  H  H216  1  0.08670000  0.45370000  0.96180000  1
  H  H217  1  0.08670000  0.95370000  0.53820000  1
  H  H218  1  0.08110000  0.65530000  0.49250000  1
  H  H219  1  0.08110000  0.15530000  0.00750000  1
  H  H220  1  0.08070000  0.33090000  0.99880000  1
  H  H221  1  0.08070000  0.83090000  0.50120000  1
  H  H222  1  0.02090000  0.62470000  0.91160000  1
  H  H223  1  0.02090000  0.12470000  0.58840000  1
  H  H224  1  0.01960000  0.92060000  0.78560000  1
  H  H225  1  0.01960000  0.42060000  0.71440000  1
  H  H226  1  0.01490000  0.50910000  0.81280000  1
  H  H227  1  0.01490000  0.00910000  0.68720000  1
  H  H228  1  0.01150000  0.26150000  0.33210000  1
  H  H229  1  0.01150000  0.76150000  0.16790000  1
  H  H230  1  0.00670000  0.29480000  0.45530000  1
  H  H231  1  0.00670000  0.79480000  0.04470000  1
  C  C232  1  0.98180000  0.59700000  0.83210000  1
  C  C233  1  0.98180000  0.09700000  0.66790000  1
  C  C234  1  0.97970000  0.64570000  0.83560000  1
  C  C235  1  0.97970000  0.14570000  0.66440000  1
  C  C236  1  0.97650000  0.89290000  0.77478000  1
  C  C237  1  0.97650000  0.39290000  0.72522000  1
  C  C238  1  0.97280000  0.26980000  0.47170000  1
  C  C239  1  0.97280000  0.76980000  0.02830000  1
  C  C240  1  0.97230000  0.94620000  0.42010000  1
  C  C241  1  0.97230000  0.44620000  0.07990000  1
  C  C242  1  0.97180000  0.45420000  0.91392000  1
  C  C243  1  0.97180000  0.95420000  0.58608000  1
  C  C244  1  0.96370000  0.23190000  0.32996000  1
  C  C245  1  0.96370000  0.73190000  0.17004000  1
  C  C246  1  0.94830000  0.02640000  0.44386000  1
  C  C247  1  0.94830000  0.52640000  0.05614000  1
  C  C248  1  0.94520000  0.53450000  0.88760000  1
  C  C249  1  0.94520000  0.03450000  0.61240000  1
  C  C250  1  0.94320000  0.89660000  0.42810000  1
  C  C251  1  0.94320000  0.39660000  0.07190000  1
  C  C252  1  0.93730000  0.40200000  0.91160000  1
  C  C253  1  0.93730000  0.90200000  0.58840000  1
  C  C254  1  0.93540000  0.91930000  0.30430000  1
  C  C255  1  0.93540000  0.41930000  0.19570000  1
  C  C256  1  0.93360000  0.82110000  0.31250000  1
  C  C257  1  0.93360000  0.32110000  0.18750000  1
  C  C258  1  0.93130000  0.96910000  0.29770000  1
  C  C259  1  0.93130000  0.46910000  0.20230000  1
  C  C260  1  0.92960000  0.76920000  0.31900000  1
  C  C261  1  0.92960000  0.26920000  0.18100000  1
  C  C262  1  0.92580000  0.20160000  0.49506000  1
  C  C263  1  0.92580000  0.70160000  0.00494000  1
  C  C264  1  0.91760000  0.48530000  0.88500000  1
  C  C265  1  0.91760000  0.98530000  0.61500000  1
  C  C266  1  0.91710000  0.97730000  0.44854000  1
  C  C267  1  0.91710000  0.47730000  0.05146000  1
  C  C268  1  0.90550000  0.39010000  0.75944000  1
  C  C269  1  0.90550000  0.89010000  0.74056000  1
  C  C270  1  0.90480000  0.81990000  0.76588000  1
  C  C271  1  0.90480000  0.31990000  0.73412000  1
  C  C272  1  0.88950000  0.21780000  0.29887000  1
  C  C273  1  0.88950000  0.71780000  0.20113000  1
  C  C274  1  0.88750000  0.56480000  0.85850000  1
  C  C275  1  0.88750000  0.06480000  0.64150000  1
  C  C276  1  0.88520000  0.16190000  0.34307000  1
  C  C277  1  0.88520000  0.66190000  0.15693000  1
  C  C278  1  0.87410000  0.73180000  0.98050000  1
  C  C279  1  0.87410000  0.23180000  0.51950000  1
  C  C280  1  0.86900000  0.81800000  0.97930000  1
  C  C281  1  0.86900000  0.31800000  0.52070000  1
  C  C282  1  0.86530000  0.87970000  0.45890000  1
  C  C283  1  0.86530000  0.37970000  0.04110000  1
  C  C284  1  0.85430000  0.83840000  0.28570000  1
  C  C285  1  0.85430000  0.33840000  0.21430000  1
  C  C286  1  0.85370000  0.88830000  0.28050000  1
  C  C287  1  0.85370000  0.38830000  0.21950000  1
  C  C288  1  0.85020000  0.98480000  0.26990000  1
  C  C289  1  0.85020000  0.48480000  0.23010000  1
  C  C290  1  0.84600000  0.73950000  0.42309000  1
  C  C291  1  0.84600000  0.23950000  0.07691000  1
  C  C292  1  0.83440000  0.95850000  0.48130000  1
  C  C293  1  0.83440000  0.45850000  0.01870000  1
  C  C294  1  0.82830000  0.34200000  0.34580000  1
  C  C295  1  0.82830000  0.84200000  0.15420000  1
  C  C296  1  0.82470000  0.38930000  0.35330000  1
  C  C297  1  0.82470000  0.88930000  0.14670000  1
  C  C298  1  0.81000000  0.90910000  0.48510000  1
  C  C299  1  0.81000000  0.40910000  0.01490000  1
  C  C300  1  0.79030000  0.73730000  0.45883000  1
  C  C301  1  0.79030000  0.23730000  0.04117000  1
  C  C302  1  0.78760000  0.66620000  0.43317000  1
  C  C303  1  0.78760000  0.16620000  0.06683000  1
  C  C304  1  0.78170000  0.04250000  0.78680000  1
  C  C305  1  0.78170000  0.54250000  0.71320000  1
  C  C306  1  0.77750000  0.32190000  0.79779000  1
  C  C307  1  0.77750000  0.82190000  0.70221000  1
  C  C308  1  0.77250000  0.90550000  0.25290000  1
  C  C309  1  0.77250000  0.40550000  0.24710000  1
  C  C310  1  0.77090000  0.45410000  0.25270000  1
  C  C311  1  0.77090000  0.95410000  0.24730000  1
  C  C312  1  0.75610000  0.00750000  0.75850000  1
  C  C313  1  0.75610000  0.50750000  0.74150000  1
  C  C314  1  0.75100000  0.14170000  0.28190000  1
  C  C315  1  0.75100000  0.64170000  0.21810000  1
  C  C316  1  0.74220000  0.22370000  0.88400000  1
  C  C317  1  0.74220000  0.72370000  0.61600000  1
  C  C318  1  0.73070000  0.59440000  0.33898000  1
  C  C319  1  0.73070000  0.09440000  0.16102000  1
  C  C320  1  0.73010000  0.82220000  0.98420000  1
  C  C321  1  0.73010000  0.32220000  0.51580000  1
  C  C322  1  0.71410000  0.40620000  0.36400000  1
  C  C323  1  0.71410000  0.90620000  0.13600000  1
  C  C324  1  0.71380000  0.31150000  0.34560000  1
  C  C325  1  0.71380000  0.81150000  0.15440000  1
  C  C326  1  0.70140000  0.04770000  0.81960000  1
  C  C327  1  0.70140000  0.54770000  0.68040000  1
  C  C328  1  0.67670000  0.17080000  0.99932000  1
  C  C329  1  0.67670000  0.67080000  0.50068000  1
  C  C330  1  0.67560000  0.32720000  0.48050000  1
  C  C331  1  0.67560000  0.82720000  0.01950000  1
  C  C332  1  0.64930000  0.81700000  0.95370000  1
  C  C333  1  0.64930000  0.31700000  0.54630000  1
  C  C334  1  0.64860000  0.97610000  0.76240000  1
  C  C335  1  0.64860000  0.47610000  0.73760000  1
  C  C336  1  0.64060000  0.33120000  0.79352000  1
  C  C337  1  0.64060000  0.83120000  0.70648000  1
  C  C338  1  0.62920000  0.13890000  0.88289000  1
  C  C339  1  0.62920000  0.63890000  0.61711000  1
  C  C340  1  0.62640000  0.18770000  0.87507000  1
  C  C341  1  0.62640000  0.68770000  0.62493000  1
  C  C342  1  0.62430000  0.55470000  0.33333333  1
  C  C343  1  0.62430000  0.05470000  0.16670000  1
  C  C344  1  0.61530000  0.15100000  0.28606000  1
  C  C345  1  0.61530000  0.65100000  0.21394000  1
  C  C346  1  0.60210000  0.51702000  0.36136000  1
  C  C347  1  0.60210000  0.01702000  0.13864000  1
  C  C348  1  0.59560000  0.32800000  0.35780000  1
  C  C349  1  0.59560000  0.82800000  0.14220000  1
  C  C350  1  0.59470000  0.37710000  0.36590000  1
  C  C351  1  0.59470000  0.87710000  0.13410000  1
  C  C352  1  0.58640000  0.35850000  0.82050000  1
  C  C353  1  0.58640000  0.85850000  0.67950000  1
  C  C354  1  0.58570000  0.01590000  0.82520000  1
  C  C355  1  0.58570000  0.51590000  0.67480000  1
  C  C356  1  0.56390000  0.31140000  0.76260000  1
  C  C357  1  0.56390000  0.81140000  0.73740000  1
  C  C358  1  0.56220000  0.17950000  0.25910000  1
  C  C359  1  0.56220000  0.67950000  0.24090000  1
  C  C360  1  0.55990000  0.97850000  0.79420000  1
  C  C361  1  0.55990000  0.47850000  0.70580000  1
  C  C362  1  0.54530000  0.55510000  0.30000000  1
  C  C363  1  0.54530000  0.05510000  0.20000000  1
  C  C364  1  0.54420000  0.32800000  0.47400000  1
  C  C365  1  0.54420000  0.82800000  0.02600000  1
  C  C366  1  0.53710000  0.13250000  0.31710000  1
  C  C367  1  0.53710000  0.63250000  0.18290000  1
  C  C368  1  0.53500000  0.67350000  0.49474000  1
  C  C369  1  0.53500000  0.17350000  0.00526000  1
  C  C370  1  0.52650000  0.05560000  0.89118000  1
  C  C371  1  0.52650000  0.55560000  0.60882000  1
  C  C372  1  0.52090000  0.82030000  0.95860000  1
  C  C373  1  0.52090000  0.32030000  0.54140000  1
  C  C374  1  0.51970000  0.10630000  0.87894000  1
  C  C375  1  0.51970000  0.60630000  0.62106000  1
  C  C376  1  0.51590000  0.20270000  0.86247000  1
  C  C377  1  0.51590000  0.70270000  0.63753000  1
  C  C378  1  0.50060000  0.01770000  0.85739000  1
  C  C379  1  0.50060000  0.51770000  0.64261000  1
  C  C380  1  0.49940000  0.48230000  0.35739000  1
  C  C381  1  0.49940000  0.98230000  0.14261000  1
  C  C382  1  0.48410000  0.29730000  0.36247000  1
  C  C383  1  0.48410000  0.79730000  0.13753000  1
  C  C384  1  0.48030000  0.39370000  0.37894000  1
  C  C385  1  0.48030000  0.89370000  0.12106000  1
  C  C386  1  0.47910000  0.67970000  0.45860000  1
  C  C387  1  0.47910000  0.17970000  0.04140000  1
  C  C388  1  0.47350000  0.44440000  0.39118000  1
  C  C389  1  0.47350000  0.94440000  0.10882000  1
  C  C390  1  0.46500000  0.82650000  0.99474000  1
  C  C391  1  0.46500000  0.32650000  0.50526000  1
  C  C392  1  0.46290000  0.36750000  0.81710000  1
  C  C393  1  0.46290000  0.86750000  0.68290000  1
  C  C394  1  0.45580000  0.17200000  0.97400000  1
  C  C395  1  0.45580000  0.67200000  0.52600000  1
  C  C396  1  0.45470000  0.94490000  0.80000000  1
  C  C397  1  0.45470000  0.44490000  0.70000000  1
  C  C398  1  0.44010000  0.52150000  0.29420000  1
  C  C399  1  0.44010000  0.02150000  0.20580000  1
  C  C400  1  0.43780000  0.32050000  0.75910000  1
  C  C401  1  0.43780000  0.82050000  0.74090000  1
  C  C402  1  0.43610000  0.18860000  0.26260000  1
  C  C403  1  0.43610000  0.68860000  0.23740000  1
  C  C404  1  0.41430000  0.48410000  0.32520000  1
  C  C405  1  0.41430000  0.98410000  0.17480000  1
  C  C406  1  0.41360000  0.14150000  0.32050000  1
  C  C407  1  0.41360000  0.64150000  0.17950000  1
  C  C408  1  0.40530000  0.12290000  0.86590000  1
  C  C409  1  0.40530000  0.62290000  0.63410000  1
  C  C410  1  0.40440000  0.17200000  0.85780000  1
  C  C411  1  0.40440000  0.67200000  0.64220000  1
  C  C412  1  0.39790000  0.98298000  0.86136000  1
  C  C413  1  0.39790000  0.48298000  0.63864000  1
  C  C414  1  0.38470000  0.34900000  0.78606000  1
  C  C415  1  0.38470000  0.84900000  0.71394000  1
  C  C416  1  0.37570000  0.94530000  0.83330000  1
  C  C417  1  0.37570000  0.44530000  0.66666667  1
  C  C418  1  0.37360000  0.31230000  0.37507000  1
  C  C419  1  0.37360000  0.81230000  0.12493000  1
  C  C420  1  0.37080000  0.36110000  0.38289000  1
  C  C421  1  0.37080000  0.86110000  0.11711000  1
  C  C422  1  0.35940000  0.16880000  0.29352000  1
  C  C423  1  0.35940000  0.66880000  0.20648000  1
  C  C424  1  0.35140000  0.52390000  0.26240000  1
  C  C425  1  0.35140000  0.02390000  0.23760000  1
  C  C426  1  0.35070000  0.68300000  0.45370000  1
  C  C427  1  0.35070000  0.18300000  0.04630000  1
  C  C428  1  0.32440000  0.17280000  0.98050000  1
  C  C429  1  0.32440000  0.67280000  0.51950000  1
  C  C430  1  0.32330000  0.32920000  0.49932000  1
  C  C431  1  0.32330000  0.82920000  0.00068000  1
  C  C432  1  0.29860000  0.45230000  0.31960000  1
  C  C433  1  0.29860000  0.95230000  0.18040000  1
  C  C434  1  0.28620000  0.18850000  0.84560000  1
  C  C435  1  0.28620000  0.68850000  0.65440000  1
  C  C436  1  0.28590000  0.09380000  0.86400000  1
  C  C437  1  0.28590000  0.59380000  0.63600000  1
  C  C438  1  0.26990000  0.67780000  0.48420000  1
  C  C439  1  0.26990000  0.17780000  0.01580000  1
  C  C440  1  0.26930000  0.90560000  0.83898000  1
  C  C441  1  0.26930000  0.40560000  0.66102000  1
  C  C442  1  0.25780000  0.27630000  0.38400000  1
  C  C443  1  0.25780000  0.77630000  0.11600000  1
  C  C444  1  0.24900000  0.35830000  0.78190000  1
  C  C445  1  0.24900000  0.85830000  0.71810000  1
  C  C446  1  0.24390000  0.49250000  0.25850000  1
  C  C447  1  0.24390000  0.99250000  0.24150000  1
  C  C448  1  0.22910000  0.04590000  0.75270000  1
  C  C449  1  0.22910000  0.54590000  0.74730000  1
  C  C450  1  0.22750000  0.59450000  0.75290000  1
  C  C451  1  0.22750000  0.09450000  0.74710000  1
  C  C452  1  0.22250000  0.17810000  0.29779000  1
  C  C453  1  0.22250000  0.67810000  0.20221000  1
  C  C454  1  0.21830000  0.45750000  0.28680000  1
  C  C455  1  0.21830000  0.95750000  0.21320000  1
  C  C456  1  0.21240000  0.83380000  0.93317000  1
  C  C457  1  0.21240000  0.33380000  0.56683000  1
  C  C458  1  0.20970000  0.76270000  0.95883000  1
  C  C459  1  0.20970000  0.26270000  0.54117000  1
  C  C460  1  0.19000000  0.59090000  0.98510000  1
  C  C461  1  0.19000000  0.09090000  0.51490000  1
  C  C462  1  0.17530000  0.11070000  0.85330000  1
  C  C463  1  0.17530000  0.61070000  0.64670000  1
  C  C464  1  0.17170000  0.15800000  0.84580000  1
  C  C465  1  0.17170000  0.65800000  0.65420000  1
  C  C466  1  0.16560000  0.54150000  0.98130000  1
  C  C467  1  0.16560000  0.04150000  0.51870000  1
  C  C468  1  0.15400000  0.76050000  0.92309000  1
  C  C469  1  0.15400000  0.26050000  0.57691000  1
  C  C470  1  0.14980000  0.51520000  0.76990000  1
  C  C471  1  0.14980000  0.01520000  0.73010000  1
  C  C472  1  0.14630000  0.61170000  0.78050000  1
  C  C473  1  0.14630000  0.11170000  0.71950000  1
  C  C474  1  0.14570000  0.66160000  0.78570000  1
  C  C475  1  0.14570000  0.16160000  0.71430000  1
  C  C476  1  0.13470000  0.62030000  0.95890000  1
  C  C477  1  0.13470000  0.12030000  0.54110000  1
  C  C478  1  0.13100000  0.68200000  0.47930000  1
  C  C479  1  0.13100000  0.18200000  0.02070000  1
  C  C480  1  0.12590000  0.76820000  0.48050000  1
  C  C481  1  0.12590000  0.26820000  0.01950000  1
  C  C482  1  0.11480000  0.33810000  0.84307000  1
  C  C483  1  0.11480000  0.83810000  0.65693000  1
  C  C484  1  0.11250000  0.93520000  0.35850000  1
  C  C485  1  0.11250000  0.43520000  0.14150000  1
  C  C486  1  0.11050000  0.28220000  0.79887000  1
  C  C487  1  0.11050000  0.78220000  0.70113000  1
  C  C488  1  0.09520000  0.68010000  0.26588000  1
  C  C489  1  0.09520000  0.18010000  0.23412000  1
  C  C490  1  0.09450000  0.10990000  0.25944000  1
  C  C491  1  0.09450000  0.60990000  0.24056000  1
  C  C492  1  0.08290000  0.52270000  0.94854000  1
  C  C493  1  0.08290000  0.02270000  0.55146000  1
  C  C494  1  0.08240000  0.01470000  0.38500000  1
  C  C495  1  0.08240000  0.51470000  0.11500000  1
  C  C496  1  0.07420000  0.29840000  0.99506000  1
  C  C497  1  0.07420000  0.79840000  0.50494000  1
  C  C498  1  0.07040000  0.73080000  0.81900000  1
  C  C499  1  0.07040000  0.23080000  0.68100000  1
  C  C500  1  0.06870000  0.53090000  0.79770000  1
  C  C501  1  0.06870000  0.03090000  0.70230000  1
  C  C502  1  0.06640000  0.67890000  0.81250000  1
  C  C503  1  0.06640000  0.17890000  0.68750000  1
  C  C504  1  0.06460000  0.58070000  0.80430000  1
  C  C505  1  0.06460000  0.08070000  0.69570000  1
  C  C506  1  0.06270000  0.09800000  0.41160000  1
  C  C507  1  0.06270000  0.59800000  0.08840000  1
  C  C508  1  0.05680000  0.60340000  0.92810000  1
  C  C509  1  0.05680000  0.10340000  0.57190000  1
  C  C510  1  0.05480000  0.96550000  0.38760000  1
  C  C511  1  0.05480000  0.46550000  0.11240000  1
  C  C512  1  0.05170000  0.47360000  0.94386000  1
  C  C513  1  0.05170000  0.97360000  0.55614000  1
  C  C514  1  0.03630000  0.26810000  0.82996000  1
  C  C515  1  0.03630000  0.76810000  0.67004000  1
  C  C516  1  0.02820000  0.04580000  0.41392000  1
  C  C517  1  0.02820000  0.54580000  0.08608000  1
  C  C518  1  0.02770000  0.55380000  0.92010000  1
  C  C519  1  0.02770000  0.05380000  0.57990000  1
  C  C520  1  0.02720000  0.23020000  0.97170000  1
  C  C521  1  0.02720000  0.73020000  0.52830000  1
  C  C522  1  0.02350000  0.60710000  0.27478000  1
  C  C523  1  0.02350000  0.10710000  0.22522000  1
  C  C524  1  0.02030000  0.85430000  0.33560000  1
  C  C525  1  0.02030000  0.35430000  0.16440000  1
  C  C526  1  0.01820000  0.90300000  0.33210000  1
  C  C527  1  0.01820000  0.40300000  0.16790000  1
  N  N528  1  0.98830000  0.22549000  0.46439000  1
  N  N529  1  0.98830000  0.72549000  0.03561000  1
  N  N530  1  0.97520000  0.84884000  0.79104000  1
  N  N531  1  0.97520000  0.34884000  0.70896000  1
  N  N532  1  0.96140000  0.19801000  0.35813000  1
  N  N533  1  0.96140000  0.69801000  0.14187000  1
  N  N534  1  0.90510000  0.77520000  0.99578000  1
  N  N535  1  0.90510000  0.27520000  0.50422000  1
  N  N536  1  0.85920000  0.34326000  0.76469000  1
  N  N537  1  0.85920000  0.84326000  0.73531000  1
  N  N538  1  0.84410000  0.69434000  0.40611000  1
  N  N539  1  0.84410000  0.19434000  0.09389000  1
  N  N540  1  0.83920000  0.17221000  0.30722000  1
  N  N541  1  0.83920000  0.67221000  0.19278000  1
  N  N542  1  0.75460000  0.69065000  0.46604000  1
  N  N543  1  0.75460000  0.19065000  0.03396000  1
  N  N544  1  0.24540000  0.80935000  0.96604000  1
  N  N545  1  0.24540000  0.30935000  0.53396000  1
  N  N546  1  0.16080000  0.32779000  0.80722000  1
  N  N547  1  0.16080000  0.82779000  0.69278000  1
  N  N548  1  0.15590000  0.80566000  0.90611000  1
  N  N549  1  0.15590000  0.30566000  0.59389000  1
  N  N550  1  0.14080000  0.15674000  0.26469000  1
  N  N551  1  0.14080000  0.65674000  0.23531000  1
  N  N552  1  0.09490000  0.72480000  0.49578000  1
  N  N553  1  0.09490000  0.22480000  0.00422000  1
  N  N554  1  0.03860000  0.30199000  0.85813000  1
  N  N555  1  0.03860000  0.80199000  0.64187000  1
  N  N556  1  0.02480000  0.65116000  0.29104000  1
  N  N557  1  0.02480000  0.15116000  0.20896000  1
  N  N558  1  0.01170000  0.27451000  0.96439000  1
  N  N559  1  0.01170000  0.77451000  0.53561000  1
  O  O560  1  0.99500000  0.37751000  0.93379000  1
  O  O561  1  0.99500000  0.87751000  0.56621000  1
  O  O562  1  0.98430000  0.74488000  0.84083000  1
  O  O563  1  0.98430000  0.24488000  0.65917000  1
  O  O564  1  0.89720000  0.66228000  0.86105000  1
  O  O565  1  0.89720000  0.16228000  0.63895000  1
  O  O566  1  0.85380000  0.38525000  0.88630000  1
  O  O567  1  0.85380000  0.88525000  0.61370000  1
  O  O568  1  0.84200000  0.74169000  0.30347000  1
  O  O569  1  0.84200000  0.24169000  0.19653000  1
  O  O570  1  0.83860000  0.20841000  0.90008000  1
  O  O571  1  0.83860000  0.70841000  0.59992000  1
  O  O572  1  0.83820000  0.46600000  0.85573000  1
  O  O573  1  0.83820000  0.96600000  0.64427000  1
  O  O574  1  0.81650000  0.59037000  0.36554000  1
  O  O575  1  0.81650000  0.09037000  0.13446000  1
  O  O576  1  0.73770000  0.26563000  0.87608000  1
  O  O577  1  0.73770000  0.76563000  0.62392000  1
  O  O578  1  0.73680000  0.12403000  0.89713000  1
  O  O579  1  0.73680000  0.62403000  0.60287000  1
  O  O580  1  0.73330000  0.63103000  0.31888000  1
  O  O581  1  0.73330000  0.13103000  0.18112000  1
  O  O582  1  0.68230000  0.51648000  0.39354000  1
  O  O583  1  0.68230000  0.01648000  0.10646000  1
  O  O584  1  0.31770000  0.98352000  0.89354000  1
  O  O585  1  0.31770000  0.48352000  0.60646000  1
  O  O586  1  0.26670000  0.86897000  0.81888000  1
  O  O587  1  0.26670000  0.36897000  0.68112000  1
  O  O588  1  0.26320000  0.37597000  0.39713000  1
  O  O589  1  0.26320000  0.87597000  0.10287000  1
  O  O590  1  0.26230000  0.23437000  0.37608000  1
  O  O591  1  0.26230000  0.73437000  0.12392000  1
  O  O592  1  0.18350000  0.90963000  0.86554000  1
  O  O593  1  0.18350000  0.40963000  0.63446000  1
  O  O594  1  0.16180000  0.03400000  0.35573000  1
  O  O595  1  0.16180000  0.53400000  0.14427000  1
  O  O596  1  0.16140000  0.29159000  0.40008000  1
  O  O597  1  0.16140000  0.79159000  0.09992000  1
  O  O598  1  0.15800000  0.75831000  0.80347000  1
  O  O599  1  0.15800000  0.25831000  0.69653000  1
  O  O600  1  0.14620000  0.11475000  0.38630000  1
  O  O601  1  0.14620000  0.61475000  0.11370000  1
  O  O602  1  0.10280000  0.83772000  0.36105000  1
  O  O603  1  0.10280000  0.33772000  0.13895000  1
  O  O604  1  0.01570000  0.75512000  0.34083000  1
  O  O605  1  0.01570000  0.25512000  0.15917000  1
  O  O606  1  0.00500000  0.12249000  0.43379000  1
  O  O607  1  0.00500000  0.62249000  0.06621000  1
