# generated using pymatgen
data_CdH20C17N8
_symmetry_space_group_name_H-M   'P 1'
_cell_length_a   12.50800000
_cell_length_b   12.75400000
_cell_length_c   15.26500000
_cell_angle_alpha   90.00000000
_cell_angle_beta   104.78200000
_cell_angle_gamma   90.00000000
_symmetry_Int_Tables_number   1
_chemical_formula_structural   CdH20C17N8
_chemical_formula_sum   'Cd4 H80 C68 N32'
_cell_volume   2354.58442679
_cell_formula_units_Z   4
loop_
 _symmetry_equiv_pos_site_id
 _symmetry_equiv_pos_as_xyz
  1  'x, y, z'
loop_
 _atom_site_type_symbol
 _atom_site_label
 _atom_site_symmetry_multiplicity
 _atom_site_fract_x
 _atom_site_fract_y
 _atom_site_fract_z
 _atom_site_occupancy
  Cd  Cd0  1  0.22658000  0.22560000  0.08202000  1
  Cd  Cd1  1  0.22658000  0.27441000  0.58202000  1
  Cd  Cd2  1  0.77342000  0.72560000  0.41798000  1
  Cd  Cd3  1  0.77342000  0.77441000  0.91798000  1
  H  H4  1  0.02010000  0.68210000  0.38060000  1
  H  H5  1  0.02010000  0.81790000  0.88060000  1
  H  H6  1  0.02570000  0.10900000  0.44530000  1
  H  H7  1  0.02570000  0.39100000  0.94530000  1
  H  H8  1  0.09290000  0.67220000  0.78400000  1
  H  H9  1  0.09290000  0.82780000  0.28400000  1
  H  H10  1  0.10520000  0.67240000  0.61450000  1
  H  H11  1  0.10520000  0.82760000  0.11450000  1
  H  H12  1  0.12410000  0.56780000  0.83850000  1
  H  H13  1  0.12410000  0.93220000  0.33850000  1
  H  H14  1  0.13280000  0.53470000  0.51270000  1
  H  H15  1  0.13280000  0.96530000  0.01270000  1
  H  H16  1  0.16770000  0.59680000  0.05050000  1
  H  H17  1  0.16770000  0.90320000  0.55050000  1
  H  H18  1  0.20480000  0.08300000  0.25590000  1
  H  H19  1  0.20480000  0.41700000  0.75590000  1
  H  H20  1  0.22410000  0.68730000  0.40290000  1
  H  H21  1  0.22410000  0.81270000  0.90290000  1
  H  H22  1  0.23980000  0.10090000  0.41420000  1
  H  H23  1  0.23980000  0.39910000  0.91420000  1
  H  H24  1  0.24820000  0.71430000  0.25880000  1
  H  H25  1  0.24820000  0.78570000  0.75880000  1
  H  H26  1  0.29340000  0.74090000  0.97970000  1
  H  H27  1  0.29340000  0.75910000  0.47970000  1
  H  H28  1  0.31520000  0.68890000  0.73910000  1
  H  H29  1  0.31520000  0.81110000  0.23910000  1
  H  H30  1  0.35480000  0.53850000  0.84790000  1
  H  H31  1  0.35480000  0.96150000  0.34790000  1
  H  H32  1  0.35610000  0.03710000  0.67100000  1
  H  H33  1  0.35610000  0.46290000  0.17100000  1
  H  H34  1  0.36810000  0.56520000  0.36870000  1
  H  H35  1  0.36810000  0.93480000  0.86870000  1
  H  H36  1  0.41450000  0.60430000  0.08590000  1
  H  H37  1  0.41450000  0.89570000  0.58590000  1
  H  H38  1  0.41760000  0.62260000  0.91640000  1
  H  H39  1  0.41760000  0.87740000  0.41640000  1
  H  H40  1  0.43220000  0.03450000  0.08580000  1
  H  H41  1  0.43220000  0.46550000  0.58580000  1
  H  H42  1  0.47920000  0.18570000  0.69170000  1
  H  H43  1  0.47920000  0.31430000  0.19170000  1
  H  H44  1  0.52080000  0.68570000  0.80830000  1
  H  H45  1  0.52080000  0.81430000  0.30830000  1
  H  H46  1  0.56780000  0.53450000  0.41420000  1
  H  H47  1  0.56780000  0.96550000  0.91420000  1
  H  H48  1  0.58240000  0.12260000  0.58360000  1
  H  H49  1  0.58240000  0.37740000  0.08360000  1
  H  H50  1  0.58550000  0.10430000  0.41410000  1
  H  H51  1  0.58550000  0.39570000  0.91410000  1
  H  H52  1  0.63190000  0.06520000  0.13130000  1
  H  H53  1  0.63190000  0.43480000  0.63130000  1
  H  H54  1  0.64390000  0.53710000  0.82900000  1
  H  H55  1  0.64390000  0.96290000  0.32900000  1
  H  H56  1  0.64520000  0.03850000  0.65210000  1
  H  H57  1  0.64520000  0.46150000  0.15210000  1
  H  H58  1  0.68480000  0.18890000  0.76090000  1
  H  H59  1  0.68480000  0.31110000  0.26090000  1
  H  H60  1  0.70660000  0.24090000  0.52030000  1
  H  H61  1  0.70660000  0.25910000  0.02030000  1
  H  H62  1  0.75180000  0.21430000  0.24120000  1
  H  H63  1  0.75180000  0.28570000  0.74120000  1
  H  H64  1  0.76020000  0.60090000  0.08580000  1
  H  H65  1  0.76020000  0.89910000  0.58580000  1
  H  H66  1  0.77590000  0.18730000  0.09710000  1
  H  H67  1  0.77590000  0.31270000  0.59710000  1
  H  H68  1  0.79520000  0.58300000  0.24410000  1
  H  H69  1  0.79520000  0.91700000  0.74410000  1
  H  H70  1  0.83230000  0.09680000  0.44950000  1
  H  H71  1  0.83230000  0.40320000  0.94950000  1
  H  H72  1  0.86720000  0.03470000  0.98730000  1
  H  H73  1  0.86720000  0.46530000  0.48730000  1
  H  H74  1  0.87590000  0.06780000  0.66150000  1
  H  H75  1  0.87590000  0.43220000  0.16150000  1
  H  H76  1  0.89480000  0.17240000  0.88550000  1
  H  H77  1  0.89480000  0.32760000  0.38550000  1
  H  H78  1  0.90710000  0.17220000  0.71600000  1
  H  H79  1  0.90710000  0.32780000  0.21600000  1
  H  H80  1  0.97430000  0.60900000  0.05470000  1
  H  H81  1  0.97430000  0.89100000  0.55470000  1
  H  H82  1  0.97990000  0.18210000  0.11940000  1
  H  H83  1  0.97990000  0.31790000  0.61940000  1
  C  C84  1  0.00800000  0.65000000  0.01890000  1
  C  C85  1  0.00800000  0.85000000  0.51890000  1
  C  C86  1  0.03260000  0.73550000  0.42347000  1
  C  C87  1  0.03260000  0.76450000  0.92347000  1
  C  C88  1  0.11500000  0.64250000  0.01700000  1
  C  C89  1  0.11500000  0.85750000  0.51700000  1
  C  C90  1  0.12920000  0.60450000  0.63090000  1
  C  C91  1  0.12920000  0.89550000  0.13090000  1
  C  C92  1  0.14440000  0.52800000  0.57510000  1
  C  C93  1  0.14440000  0.97200000  0.07510000  1
  C  C94  1  0.14860000  0.61770000  0.79979000  1
  C  C95  1  0.14860000  0.88230000  0.29979000  1
  C  C96  1  0.18410000  0.03650000  0.20760000  1
  C  C97  1  0.18410000  0.46350000  0.70760000  1
  C  C98  1  0.23110000  0.74170000  0.92664000  1
  C  C99  1  0.23110000  0.75830000  0.42664000  1
  C  C100  1  0.25800000  0.66770000  0.85403000  1
  C  C101  1  0.25800000  0.83230000  0.35403000  1
  C  C102  1  0.27580000  0.06760000  0.46790000  1
  C  C103  1  0.27580000  0.43240000  0.96790000  1
  C  C104  1  0.30390000  0.73460000  0.78679000  1
  C  C105  1  0.30390000  0.76540000  0.28679000  1
  C  C106  1  0.34000000  0.03240000  0.60810000  1
  C  C107  1  0.34000000  0.46760000  0.10810000  1
  C  C108  1  0.34760000  0.58610000  0.89560000  1
  C  C109  1  0.34760000  0.91390000  0.39560000  1
  C  C110  1  0.37210000  0.54630000  0.06180000  1
  C  C111  1  0.37210000  0.95370000  0.56180000  1
  C  C112  1  0.42280000  0.61180000  0.36240000  1
  C  C113  1  0.42280000  0.88820000  0.86240000  1
  C  C114  1  0.46650000  0.09550000  0.11250000  1
  C  C115  1  0.46650000  0.40450000  0.61250000  1
  C  C116  1  0.49160000  0.24840000  0.17009000  1
  C  C117  1  0.49160000  0.25160000  0.67009000  1
  C  C118  1  0.50840000  0.74840000  0.32991000  1
  C  C119  1  0.50840000  0.75160000  0.82991000  1
  C  C120  1  0.53350000  0.59550000  0.38750000  1
  C  C121  1  0.53350000  0.90450000  0.88750000  1
  C  C122  1  0.57720000  0.11180000  0.13760000  1
  C  C123  1  0.57720000  0.38820000  0.63760000  1
  C  C124  1  0.62790000  0.04630000  0.43820000  1
  C  C125  1  0.62790000  0.45370000  0.93820000  1
  C  C126  1  0.65240000  0.08610000  0.60440000  1
  C  C127  1  0.65240000  0.41390000  0.10440000  1
  C  C128  1  0.66000000  0.53240000  0.89190000  1
  C  C129  1  0.66000000  0.96760000  0.39190000  1
  C  C130  1  0.69610000  0.23460000  0.71321000  1
  C  C131  1  0.69610000  0.26540000  0.21321000  1
  C  C132  1  0.72420000  0.56760000  0.03210000  1
  C  C133  1  0.72420000  0.93240000  0.53210000  1
  C  C134  1  0.74200000  0.16770000  0.64597000  1
  C  C135  1  0.74200000  0.33230000  0.14597000  1
  C  C136  1  0.76890000  0.24170000  0.57336000  1
  C  C137  1  0.76890000  0.25830000  0.07336000  1
  C  C138  1  0.81590000  0.53650000  0.29240000  1
  C  C139  1  0.81590000  0.96350000  0.79240000  1
  C  C140  1  0.85140000  0.11770000  0.70021000  1
  C  C141  1  0.85140000  0.38230000  0.20021000  1
  C  C142  1  0.85560000  0.02800000  0.92490000  1
  C  C143  1  0.85560000  0.47200000  0.42490000  1
  C  C144  1  0.87080000  0.10450000  0.86910000  1
  C  C145  1  0.87080000  0.39550000  0.36910000  1
  C  C146  1  0.88500000  0.14250000  0.48300000  1
  C  C147  1  0.88500000  0.35750000  0.98300000  1
  C  C148  1  0.96740000  0.23550000  0.07653000  1
  C  C149  1  0.96740000  0.26450000  0.57653000  1
  C  C150  1  0.99200000  0.15000000  0.48110000  1
  C  C151  1  0.99200000  0.35000000  0.98110000  1
  N  N152  1  0.04379000  0.22660000  0.53925000  1
  N  N153  1  0.04379000  0.27340000  0.03925000  1
  N  N154  1  0.13054000  0.71610000  0.95519000  1
  N  N155  1  0.13054000  0.78390000  0.45519000  1
  N  N156  1  0.15564000  0.56370000  0.71630000  1
  N  N157  1  0.15564000  0.93630000  0.21630000  1
  N  N158  1  0.17930000  0.06130000  0.12335000  1
  N  N159  1  0.17930000  0.43870000  0.62335000  1
  N  N160  1  0.27960000  0.10510000  0.54862000  1
  N  N161  1  0.27960000  0.39490000  0.04862000  1
  N  N162  1  0.32943000  0.52350000  0.97111000  1
  N  N163  1  0.32943000  0.97650000  0.47111000  1
  N  N164  1  0.40745000  0.70980000  0.32632000  1
  N  N165  1  0.40745000  0.79020000  0.82632000  1
  N  N166  1  0.41240000  0.18270000  0.13261000  1
  N  N167  1  0.41240000  0.31730000  0.63261000  1
  N  N168  1  0.58760000  0.68270000  0.36739000  1
  N  N169  1  0.58760000  0.81730000  0.86739000  1
  N  N170  1  0.59255000  0.20980000  0.17368000  1
  N  N171  1  0.59255000  0.29020000  0.67368000  1
  N  N172  1  0.67057000  0.02350000  0.52889000  1
  N  N173  1  0.67057000  0.47650000  0.02889000  1
  N  N174  1  0.72040000  0.60510000  0.95138000  1
  N  N175  1  0.72040000  0.89490000  0.45138000  1
  N  N176  1  0.82070000  0.56130000  0.37665000  1
  N  N177  1  0.82070000  0.93870000  0.87665000  1
  N  N178  1  0.84436000  0.06370000  0.78370000  1
  N  N179  1  0.84436000  0.43630000  0.28370000  1
  N  N180  1  0.86946000  0.21610000  0.54481000  1
  N  N181  1  0.86946000  0.28390000  0.04481000  1
  N  N182  1  0.95621000  0.72660000  0.96075000  1
  N  N183  1  0.95621000  0.77340000  0.46075000  1
