# generated using pymatgen
data_Ag9P4H78W36C54(N2O9)10
_symmetry_space_group_name_H-M   'P 1'
_cell_length_a   15.61600000
_cell_length_b   17.36500000
_cell_length_c   19.96200000
_cell_angle_alpha   75.81300000
_cell_angle_beta   89.46800000
_cell_angle_gamma   76.03600000
_symmetry_Int_Tables_number   1
_chemical_formula_structural   Ag9P4H78W36C54(N2O9)10
_chemical_formula_sum   'Ag9 P4 H78 W36 C54 N20 O90'
_cell_volume   5085.78872438
_cell_formula_units_Z   1
loop_
 _symmetry_equiv_pos_site_id
 _symmetry_equiv_pos_as_xyz
  1  'x, y, z'
loop_
 _atom_site_type_symbol
 _atom_site_label
 _atom_site_symmetry_multiplicity
 _atom_site_fract_x
 _atom_site_fract_y
 _atom_site_fract_z
 _atom_site_occupancy
  Ag  Ag0  1  0.00000000  0.00000000  0.00000000  1
  Ag  Ag1  1  0.00000000  0.50000000  0.00000000  1
  Ag  Ag2  1  0.03408000  0.42813000  0.46368000  1
  Ag  Ag3  1  0.27200000  0.94895000  0.08682000  1
  Ag  Ag4  1  0.40365000  0.06047000  0.03256000  1
  Ag  Ag5  1  0.50000000  0.50000000  0.00000000  1
  Ag  Ag6  1  0.59635000  0.93953000  0.96744000  1
  Ag  Ag7  1  0.72800000  0.05105000  0.91318000  1
  Ag  Ag8  1  0.96592000  0.57187000  0.53632000  1
  P  P9  1  0.21790000  0.14140000  0.74913000  1
  P  P10  1  0.33333333  0.31530000  0.76931000  1
  P  P11  1  0.66666667  0.68470000  0.23069000  1
  P  P12  1  0.78210000  0.85860000  0.25087000  1
  H  H13  1  0.03000000  0.19060000  0.04760000  1
  H  H14  1  0.03810000  0.62610000  0.86250000  1
  H  H15  1  0.04320000  0.10460000  0.25810000  1
  H  H16  1  0.05570000  0.31480000  0.96990000  1
  H  H17  1  0.06580000  0.83140000  0.83530000  1
  H  H18  1  0.06630000  0.76750000  0.79170000  1
  H  H19  1  0.07960000  0.22740000  0.26070000  1
  H  H20  1  0.08420000  0.55490000  0.32140000  1
  H  H21  1  0.09220000  0.11410000  0.18920000  1
  H  H22  1  0.13320000  0.85790000  0.13100000  1
  H  H23  1  0.14640000  0.14200000  0.28730000  1
  H  H24  1  0.14970000  0.88200000  0.93280000  1
  H  H25  1  0.15180000  0.24630000  0.15460000  1
  H  H26  1  0.16440000  0.69170000  0.99400000  1
  H  H27  1  0.20100000  0.13910000  0.09140000  1
  H  H28  1  0.20620000  0.62870000  0.94980000  1
  H  H29  1  0.21350000  0.24080000  0.21790000  1
  H  H30  1  0.21610000  0.53340000  0.26470000  1
  H  H31  1  0.23900000  0.37160000  0.44740000  1
  H  H32  1  0.24070000  0.75540000  0.90370000  1
  H  H33  1  0.26600000  0.76920000  0.11440000  1
  H  H34  1  0.28980000  0.63980000  0.07610000  1
  H  H35  1  0.32500000  0.68470000  0.92650000  1
  H  H36  1  0.34020000  0.32370000  0.30160000  1
  H  H37  1  0.34110000  0.81190000  0.94240000  1
  H  H38  1  0.34240000  0.58570000  0.02810000  1
  H  H39  1  0.34330000  0.09760000  0.26180000  1
  H  H40  1  0.36200000  0.39940000  0.25010000  1
  H  H41  1  0.36430000  0.74160000  0.01120000  1
  H  H42  1  0.38720000  0.36750000  0.39240000  1
  H  H43  1  0.40020000  0.44580000  0.33900000  1
  H  H44  1  0.41260000  0.99520000  0.20200000  1
  H  H45  1  0.44050000  0.76070000  0.74730000  1
  H  H46  1  0.46500000  0.22460000  0.25040000  1
  H  H47  1  0.47150000  0.31400000  0.01820000  1
  H  H48  1  0.47200000  0.21820000  0.13020000  1
  H  H49  1  0.48780000  0.27270000  0.33690000  1
  H  H50  1  0.48970000  0.65120000  0.71240000  1
  H  H51  1  0.49910000  0.58890000  0.83410000  1
  H  H52  1  0.50090000  0.41110000  0.16590000  1
  H  H53  1  0.51030000  0.34880000  0.28760000  1
  H  H54  1  0.51220000  0.72730000  0.66310000  1
  H  H55  1  0.52800000  0.78180000  0.86980000  1
  H  H56  1  0.52850000  0.68600000  0.98180000  1
  H  H57  1  0.53500000  0.77540000  0.74960000  1
  H  H58  1  0.55950000  0.23930000  0.25270000  1
  H  H59  1  0.58740000  0.00480000  0.79800000  1
  H  H60  1  0.59980000  0.55420000  0.66100000  1
  H  H61  1  0.61280000  0.63250000  0.60760000  1
  H  H62  1  0.63570000  0.25840000  0.98880000  1
  H  H63  1  0.63800000  0.60060000  0.74990000  1
  H  H64  1  0.65670000  0.90240000  0.73820000  1
  H  H65  1  0.65760000  0.41430000  0.97190000  1
  H  H66  1  0.65890000  0.18810000  0.05760000  1
  H  H67  1  0.65980000  0.67630000  0.69840000  1
  H  H68  1  0.67500000  0.31530000  0.07350000  1
  H  H69  1  0.71020000  0.36020000  0.92390000  1
  H  H70  1  0.73400000  0.23080000  0.88560000  1
  H  H71  1  0.75930000  0.24460000  0.09630000  1
  H  H72  1  0.76100000  0.62840000  0.55260000  1
  H  H73  1  0.78390000  0.46660000  0.73530000  1
  H  H74  1  0.78650000  0.75920000  0.78210000  1
  H  H75  1  0.79380000  0.37130000  0.05020000  1
  H  H76  1  0.79900000  0.86090000  0.90860000  1
  H  H77  1  0.83560000  0.30830000  0.00600000  1
  H  H78  1  0.84820000  0.75370000  0.84540000  1
  H  H79  1  0.85030000  0.11800000  0.06720000  1
  H  H80  1  0.85360000  0.85800000  0.71270000  1
  H  H81  1  0.86680000  0.14210000  0.86900000  1
  H  H82  1  0.90780000  0.88590000  0.81080000  1
  H  H83  1  0.91580000  0.44510000  0.67860000  1
  H  H84  1  0.92040000  0.77260000  0.73930000  1
  H  H85  1  0.93370000  0.23250000  0.20830000  1
  H  H86  1  0.93420000  0.16860000  0.16470000  1
  H  H87  1  0.94430000  0.68520000  0.03010000  1
  H  H88  1  0.95680000  0.89540000  0.74190000  1
  H  H89  1  0.96190000  0.37390000  0.13750000  1
  H  H90  1  0.97000000  0.80940000  0.95240000  1
  W  W91  1  0.02076000  0.25964000  0.80029000  1
  W  W92  1  0.05291000  0.03943000  0.80661000  1
  W  W93  1  0.06321000  0.29015000  0.63144000  1
  W  W94  1  0.09820000  0.07014000  0.63805000  1
  W  W95  1  0.13229000  0.42361000  0.81769000  1
  W  W96  1  0.17259000  0.45522000  0.64874000  1
  W  W97  1  0.18261000  0.10465000  0.92643000  1
  W  W98  1  0.24373000  0.93169000  0.75925000  1
  W  W99  1  0.27046000  0.18060000  0.57453000  1
  W  W100  1  0.29034000  0.26991000  0.94690000  1
  W  W101  1  0.34517000  0.46401000  0.85765000  1
  W  W102  1  0.37332000  0.00290000  0.87536000  1
  W  W103  1  0.38137000  0.34339000  0.59424000  1
  W  W104  1  0.38287000  0.50290000  0.68695000  1
  W  W105  1  0.41588000  0.03940000  0.69066000  1
  W  W106  1  0.46634000  0.63641000  0.19691000  1
  W  W107  1  0.47567000  0.79714000  0.28863000  1
  W  W108  1  0.48108000  0.16958000  0.89490000  1
  W  W109  1  0.51892000  0.83042000  0.10510000  1
  W  W110  1  0.52433000  0.20286000  0.71137000  1
  W  W111  1  0.53366000  0.36359000  0.80309000  1
  W  W112  1  0.58412000  0.96060000  0.30934000  1
  W  W113  1  0.61713000  0.49710000  0.31305000  1
  W  W114  1  0.61863000  0.65661000  0.40576000  1
  W  W115  1  0.62668000  0.99710000  0.12464000  1
  W  W116  1  0.65483000  0.53599000  0.14235000  1
  W  W117  1  0.70966000  0.73009000  0.05310000  1
  W  W118  1  0.72954000  0.81940000  0.42547000  1
  W  W119  1  0.75627000  0.06831000  0.24075000  1
  W  W120  1  0.81739000  0.89535000  0.07357000  1
  W  W121  1  0.82741000  0.54478000  0.35126000  1
  W  W122  1  0.86771000  0.57639000  0.18231000  1
  W  W123  1  0.90180000  0.92986000  0.36195000  1
  W  W124  1  0.93679000  0.70985000  0.36856000  1
  W  W125  1  0.94709000  0.96057000  0.19339000  1
  W  W126  1  0.97924000  0.74036000  0.19971000  1
  C  C127  1  0.01890000  0.24230000  0.05620000  1
  C  C128  1  0.02010000  0.65570000  0.89540000  1
  C  C129  1  0.03110000  0.31180000  0.01280000  1
  C  C130  1  0.03150000  0.79750000  0.82180000  1
  C  C131  1  0.05930000  0.14440000  0.22010000  1
  C  C132  1  0.11480000  0.18060000  0.24630000  1
  C  C133  1  0.13550000  0.51520000  0.33980000  1
  C  C134  1  0.16490000  0.87200000  0.08890000  1
  C  C135  1  0.16560000  0.87130000  0.97950000  1
  C  C136  1  0.18280000  0.20980000  0.19670000  1
  C  C137  1  0.20900000  0.50550000  0.30960000  1
  C  C138  1  0.21900000  0.66190000  0.97920000  1
  C  C139  1  0.21980000  0.41690000  0.41020000  1
  C  C140  1  0.24120000  0.82000000  0.07910000  1
  C  C141  1  0.24560000  0.11680000  0.12620000  1
  C  C142  1  0.27590000  0.71900000  0.94410000  1
  C  C143  1  0.28440000  0.60940000  0.04220000  1
  C  C144  1  0.31720000  0.77450000  0.97740000  1
  C  C145  1  0.32400000  0.09260000  0.21950000  1
  C  C146  1  0.36210000  0.03700000  0.18590000  1
  C  C147  1  0.36520000  0.40560000  0.34830000  1
  C  C148  1  0.37910000  0.36060000  0.29460000  1
  C  C149  1  0.47260000  0.31100000  0.29190000  1
  C  C150  1  0.47570000  0.32530000  0.06100000  1
  C  C151  1  0.47680000  0.27200000  0.12330000  1
  C  C152  1  0.49080000  0.37370000  0.14260000  1
  C  C153  1  0.49740000  0.26690000  0.24330000  1
  C  C154  1  0.50260000  0.73310000  0.75670000  1
  C  C155  1  0.50920000  0.62630000  0.85740000  1
  C  C156  1  0.52320000  0.72800000  0.87670000  1
  C  C157  1  0.52430000  0.67470000  0.93900000  1
  C  C158  1  0.52740000  0.68900000  0.70810000  1
  C  C159  1  0.62090000  0.63940000  0.70540000  1
  C  C160  1  0.63480000  0.59440000  0.65170000  1
  C  C161  1  0.63790000  0.96300000  0.81410000  1
  C  C162  1  0.67600000  0.90740000  0.78050000  1
  C  C163  1  0.68280000  0.22550000  0.02260000  1
  C  C164  1  0.71560000  0.39060000  0.95780000  1
  C  C165  1  0.72410000  0.28100000  0.05590000  1
  C  C166  1  0.75440000  0.88320000  0.87380000  1
  C  C167  1  0.75880000  0.18000000  0.92090000  1
  C  C168  1  0.78020000  0.58310000  0.58980000  1
  C  C169  1  0.78100000  0.33810000  0.02080000  1
  C  C170  1  0.79100000  0.49450000  0.69040000  1
  C  C171  1  0.81720000  0.79020000  0.80330000  1
  C  C172  1  0.83440000  0.12870000  0.02050000  1
  C  C173  1  0.83510000  0.12800000  0.91110000  1
  C  C174  1  0.86450000  0.48480000  0.66020000  1
  C  C175  1  0.88520000  0.81940000  0.75370000  1
  C  C176  1  0.94070000  0.85560000  0.77990000  1
  C  C177  1  0.96850000  0.20250000  0.17820000  1
  C  C178  1  0.96890000  0.68820000  0.98720000  1
  C  C179  1  0.97990000  0.34430000  0.10460000  1
  C  C180  1  0.98110000  0.75770000  0.94380000  1
  N  N181  1  0.00210000  0.37560000  0.04110000  1
  N  N182  1  0.01250000  0.73750000  0.88560000  1
  N  N183  1  0.11840000  0.90100000  0.02450000  1
  N  N184  1  0.14250000  0.46150000  0.40050000  1
  N  N185  1  0.24350000  0.82130000  0.01180000  1
  N  N186  1  0.24840000  0.14260000  0.17840000  1
  N  N187  1  0.27680000  0.44610000  0.35420000  1
  N  N188  1  0.31710000  0.04990000  0.12520000  1
  N  N189  1  0.48150000  0.39430000  0.07120000  1
  N  N190  1  0.48570000  0.30890000  0.17300000  1
  N  N191  1  0.51430000  0.69110000  0.82700000  1
  N  N192  1  0.51850000  0.60570000  0.92880000  1
  N  N193  1  0.68290000  0.95010000  0.87480000  1
  N  N194  1  0.72320000  0.55390000  0.64580000  1
  N  N195  1  0.75160000  0.85740000  0.82160000  1
  N  N196  1  0.75650000  0.17870000  0.98820000  1
  N  N197  1  0.85750000  0.53850000  0.59950000  1
  N  N198  1  0.88160000  0.09900000  0.97550000  1
  N  N199  1  0.98750000  0.26250000  0.11440000  1
  N  N200  1  0.99790000  0.62440000  0.95890000  1
  O  O201  1  0.00880000  0.65560000  0.43850000  1
  O  O202  1  0.01010000  0.15380000  0.79350000  1
  O  O203  1  0.01570000  0.69920000  0.29580000  1
  O  O204  1  0.02340000  0.04610000  0.71390000  1
  O  O205  1  0.05020000  0.18560000  0.63370000  1
  O  O206  1  0.06440000  0.35380000  0.79800000  1
  O  O207  1  0.10060000  0.20070000  0.87820000  1
  O  O208  1  0.10260000  0.38250000  0.64620000  1
  O  O209  1  0.11040000  0.48830000  0.72490000  1
  O  O210  1  0.12540000  0.04560000  0.88240000  1
  O  O211  1  0.13870000  0.93640000  0.80770000  1
  O  O212  1  0.14810000  0.22260000  0.73410000  1
  O  O213  1  0.17200000  0.26200000  0.58950000  1
  O  O214  1  0.17320000  0.96310000  0.67450000  1
  O  O215  1  0.17340000  0.07290000  0.74210000  1
  O  O216  1  0.18970000  0.33470000  0.89400000  1
  O  O217  1  0.19450000  0.10770000  0.59390000  1
  O  O218  1  0.22510000  0.47190000  0.82880000  1
  O  O219  1  0.23810000  0.35720000  0.75080000  1
  O  O220  1  0.25230000  0.17570000  0.94520000  1
  O  O221  1  0.25680000  0.11800000  0.82290000  1
  O  O222  1  0.26170000  0.39490000  0.60390000  1
  O  O223  1  0.26370000  0.50640000  0.66910000  1
  O  O224  1  0.28420000  0.01570000  0.94380000  1
  O  O225  1  0.28830000  0.14330000  0.69610000  1
  O  O226  1  0.30390000  0.94590000  0.83630000  1
  O  O227  1  0.33250000  0.97350000  0.70600000  1
  O  O228  1  0.33840000  0.36550000  0.92010000  1
  O  O229  1  0.34500000  0.25220000  0.58430000  1
  O  O230  1  0.34560000  0.25180000  0.83940000  1
  O  O231  1  0.35310000  0.53840000  0.76960000  1
  O  O232  1  0.37170000  0.08780000  0.59820000  1
  O  O233  1  0.37680000  0.27740000  0.71300000  1
  O  O234  1  0.38170000  0.38430000  0.77630000  1
  O  O235  1  0.40960000  0.20170000  0.96550000  1
  O  O236  1  0.41140000  0.42760000  0.63160000  1
  O  O237  1  0.41980000  0.08340000  0.90120000  1
  O  O238  1  0.42360000  0.02600000  0.78870000  1
  O  O239  1  0.45290000  0.70680000  0.25750000  1
  O  O240  1  0.47130000  0.12760000  0.68490000  1
  O  O241  1  0.47160000  0.42910000  0.86210000  1
  O  O242  1  0.48230000  0.73200000  0.12780000  1
  O  O243  1  0.49350000  0.84400000  0.19470000  1
  O  O244  1  0.49680000  0.54210000  0.27160000  1
  O  O245  1  0.49800000  0.27380000  0.62170000  1
  O  O246  1  0.50200000  0.72620000  0.37830000  1
  O  O247  1  0.50320000  0.45790000  0.72840000  1
  O  O248  1  0.50650000  0.15600000  0.80530000  1
  O  O249  1  0.51770000  0.26800000  0.87220000  1
  O  O250  1  0.52840000  0.57090000  0.13790000  1
  O  O251  1  0.52870000  0.87240000  0.31510000  1
  O  O252  1  0.54710000  0.29320000  0.74250000  1
  O  O253  1  0.57640000  0.97400000  0.21130000  1
  O  O254  1  0.58020000  0.91660000  0.09880000  1
  O  O255  1  0.58860000  0.57240000  0.36840000  1
  O  O256  1  0.59040000  0.79830000  0.03450000  1
  O  O257  1  0.61830000  0.61570000  0.22370000  1
  O  O258  1  0.62320000  0.72260000  0.28700000  1
  O  O259  1  0.62830000  0.91220000  0.40180000  1
  O  O260  1  0.64690000  0.46160000  0.23040000  1
  O  O261  1  0.65440000  0.74820000  0.16060000  1
  O  O262  1  0.65500000  0.74780000  0.41570000  1
  O  O263  1  0.66160000  0.63450000  0.07990000  1
  O  O264  1  0.66750000  0.02650000  0.29400000  1
  O  O265  1  0.69610000  0.05410000  0.16370000  1
  O  O266  1  0.71170000  0.85670000  0.30390000  1
  O  O267  1  0.71580000  0.98430000  0.05620000  1
  O  O268  1  0.73630000  0.49360000  0.33090000  1
  O  O269  1  0.73830000  0.60510000  0.39610000  1
  O  O270  1  0.74320000  0.88200000  0.17710000  1
  O  O271  1  0.74770000  0.82430000  0.05480000  1
  O  O272  1  0.76190000  0.64280000  0.24920000  1
  O  O273  1  0.77490000  0.52810000  0.17120000  1
  O  O274  1  0.80550000  0.89230000  0.40610000  1
  O  O275  1  0.81030000  0.66530000  0.10600000  1
  O  O276  1  0.82660000  0.92710000  0.25790000  1
  O  O277  1  0.82680000  0.03690000  0.32550000  1
  O  O278  1  0.82800000  0.73800000  0.41050000  1
  O  O279  1  0.85190000  0.77740000  0.26590000  1
  O  O280  1  0.86130000  0.06360000  0.19230000  1
  O  O281  1  0.87460000  0.95440000  0.11760000  1
  O  O282  1  0.88960000  0.51170000  0.27510000  1
  O  O283  1  0.89740000  0.61750000  0.35380000  1
  O  O284  1  0.89940000  0.79930000  0.12180000  1
  O  O285  1  0.93560000  0.64620000  0.20200000  1
  O  O286  1  0.94980000  0.81440000  0.36630000  1
  O  O287  1  0.97660000  0.95390000  0.28610000  1
  O  O288  1  0.98430000  0.30080000  0.70420000  1
  O  O289  1  0.98990000  0.84620000  0.20650000  1
  O  O290  1  0.99120000  0.34440000  0.56150000  1
