# generated using pymatgen
data_Cd2H28C37S4(N2O3)3
_symmetry_space_group_name_H-M   'P 1'
_cell_length_a   12.96490000
_cell_length_b   16.24390000
_cell_length_c   22.57360000
_cell_angle_alpha   106.40400000
_cell_angle_beta   90.00000000
_cell_angle_gamma   90.00000000
_symmetry_Int_Tables_number   1
_chemical_formula_structural   Cd2H28C37S4(N2O3)3
_chemical_formula_sum   'Cd8 H112 C148 S16 N24 O36'
_cell_volume   4560.49674480
_cell_formula_units_Z   4
loop_
 _symmetry_equiv_pos_site_id
 _symmetry_equiv_pos_as_xyz
  1  'x, y, z'
loop_
 _atom_site_type_symbol
 _atom_site_label
 _atom_site_symmetry_multiplicity
 _atom_site_fract_x
 _atom_site_fract_y
 _atom_site_fract_z
 _atom_site_occupancy
  Cd  Cd0  1  0.06540000  0.57900000  0.28649000  1
  Cd  Cd1  1  0.14739000  0.80198000  0.36003000  1
  Cd  Cd2  1  0.35261000  0.80198000  0.86003000  1
  Cd  Cd3  1  0.43460000  0.57900000  0.78649000  1
  Cd  Cd4  1  0.56540000  0.42100000  0.21351000  1
  Cd  Cd5  1  0.64739000  0.19802000  0.13997000  1
  Cd  Cd6  1  0.85261000  0.19802000  0.63997000  1
  Cd  Cd7  1  0.93460000  0.42100000  0.71351000  1
  H  H8  1  0.00150000  0.10370000  0.36270000  1
  H  H9  1  0.00440000  0.95730000  0.34360000  1
  H  H10  1  0.00490000  0.65600000  0.10030000  1
  H  H11  1  0.01150000  0.27640000  0.97720000  1
  H  H12  1  0.01250000  0.62690000  0.48390000  1
  H  H13  1  0.01530000  0.75470000  0.56520000  1
  H  H14  1  0.03920000  0.23090000  0.49300000  1
  H  H15  1  0.04190000  0.88550000  0.22100000  1
  H  H16  1  0.05050000  0.32710000  0.24590000  1
  H  H17  1  0.06440000  0.90920000  0.80890000  1
  H  H18  1  0.08990000  0.52610000  0.64990000  1
  H  H19  1  0.09500000  0.03800000  0.20840000  1
  H  H20  1  0.09910000  0.59960000  0.57750000  1
  H  H21  1  0.10840000  0.37060000  0.51690000  1
  H  H22  1  0.13810000  0.24130000  0.38440000  1
  H  H23  1  0.16150000  0.08080000  0.06720000  1
  H  H24  1  0.16820000  0.11870000  0.59090000  1
  H  H25  1  0.19900000  0.66850000  0.39130000  1
  H  H26  1  0.20100000  0.24530000  0.44450000  1
  H  H27  1  0.20460000  0.42840000  0.44620000  1
  H  H28  1  0.20680000  0.50010000  0.37250000  1
  H  H29  1  0.20830000  0.95130000  0.54280000  1
  H  H30  1  0.21770000  0.11200000  0.93700000  1
  H  H31  1  0.22050000  0.82690000  0.70030000  1
  H  H32  1  0.22110000  0.96650000  0.91510000  1
  H  H33  1  0.22360000  0.74030000  0.59890000  1
  H  H34  1  0.24900000  0.36310000  0.62090000  1
  H  H35  1  0.24940000  0.65440000  0.33690000  1
  H  H36  1  0.25060000  0.65440000  0.83690000  1
  H  H37  1  0.25100000  0.36310000  0.12090000  1
  H  H38  1  0.27640000  0.74030000  0.09890000  1
  H  H39  1  0.27890000  0.96650000  0.41510000  1
  H  H40  1  0.27950000  0.82690000  0.20030000  1
  H  H41  1  0.28230000  0.11200000  0.43700000  1
  H  H42  1  0.29170000  0.95130000  0.04280000  1
  H  H43  1  0.29320000  0.50010000  0.87250000  1
  H  H44  1  0.29540000  0.42840000  0.94620000  1
  H  H45  1  0.29900000  0.24530000  0.94450000  1
  H  H46  1  0.30100000  0.66850000  0.89130000  1
  H  H47  1  0.33180000  0.11870000  0.09090000  1
  H  H48  1  0.33850000  0.08080000  0.56720000  1
  H  H49  1  0.36190000  0.24130000  0.88440000  1
  H  H50  1  0.39160000  0.37060000  0.01690000  1
  H  H51  1  0.40090000  0.59960000  0.07750000  1
  H  H52  1  0.40500000  0.03800000  0.70840000  1
  H  H53  1  0.41010000  0.52610000  0.14990000  1
  H  H54  1  0.43560000  0.90920000  0.30890000  1
  H  H55  1  0.44950000  0.32710000  0.74590000  1
  H  H56  1  0.45810000  0.88550000  0.72100000  1
  H  H57  1  0.46080000  0.23090000  0.99300000  1
  H  H58  1  0.48470000  0.75470000  0.06520000  1
  H  H59  1  0.48750000  0.62690000  0.98390000  1
  H  H60  1  0.48850000  0.27640000  0.47720000  1
  H  H61  1  0.49510000  0.65600000  0.60030000  1
  H  H62  1  0.49560000  0.95730000  0.84360000  1
  H  H63  1  0.49850000  0.10370000  0.86270000  1
  H  H64  1  0.50150000  0.89630000  0.13730000  1
  H  H65  1  0.50440000  0.04270000  0.15640000  1
  H  H66  1  0.50490000  0.34400000  0.39970000  1
  H  H67  1  0.51150000  0.72360000  0.52280000  1
  H  H68  1  0.51250000  0.37310000  0.01610000  1
  H  H69  1  0.51530000  0.24530000  0.93480000  1
  H  H70  1  0.53920000  0.76910000  0.00700000  1
  H  H71  1  0.54190000  0.11450000  0.27900000  1
  H  H72  1  0.55050000  0.67290000  0.25410000  1
  H  H73  1  0.56440000  0.09080000  0.69110000  1
  H  H74  1  0.58990000  0.47390000  0.85010000  1
  H  H75  1  0.59500000  0.96200000  0.29160000  1
  H  H76  1  0.59910000  0.40040000  0.92250000  1
  H  H77  1  0.60840000  0.62940000  0.98310000  1
  H  H78  1  0.63810000  0.75870000  0.11560000  1
  H  H79  1  0.66150000  0.91920000  0.43280000  1
  H  H80  1  0.66820000  0.88130000  0.90910000  1
  H  H81  1  0.69900000  0.33150000  0.10870000  1
  H  H82  1  0.70100000  0.75470000  0.05550000  1
  H  H83  1  0.70460000  0.57160000  0.05380000  1
  H  H84  1  0.70680000  0.49990000  0.12750000  1
  H  H85  1  0.70830000  0.04870000  0.95720000  1
  H  H86  1  0.71770000  0.88800000  0.56300000  1
  H  H87  1  0.72050000  0.17310000  0.79970000  1
  H  H88  1  0.72110000  0.03350000  0.58490000  1
  H  H89  1  0.72360000  0.25970000  0.90110000  1
  H  H90  1  0.74900000  0.63690000  0.87910000  1
  H  H91  1  0.74940000  0.34560000  0.16310000  1
  H  H92  1  0.75060000  0.34560000  0.66310000  1
  H  H93  1  0.75100000  0.63690000  0.37910000  1
  H  H94  1  0.77640000  0.25970000  0.40110000  1
  H  H95  1  0.77890000  0.03350000  0.08490000  1
  H  H96  1  0.77950000  0.17310000  0.29970000  1
  H  H97  1  0.78230000  0.88800000  0.06300000  1
  H  H98  1  0.79170000  0.04870000  0.45720000  1
  H  H99  1  0.79320000  0.49990000  0.62750000  1
  H  H100  1  0.79540000  0.57160000  0.55380000  1
  H  H101  1  0.79900000  0.75470000  0.55550000  1
  H  H102  1  0.80100000  0.33150000  0.60870000  1
  H  H103  1  0.83180000  0.88130000  0.40910000  1
  H  H104  1  0.83850000  0.91920000  0.93280000  1
  H  H105  1  0.86190000  0.75870000  0.61560000  1
  H  H106  1  0.89160000  0.62940000  0.48310000  1
  H  H107  1  0.90090000  0.40040000  0.42250000  1
  H  H108  1  0.90500000  0.96200000  0.79160000  1
  H  H109  1  0.91010000  0.47390000  0.35010000  1
  H  H110  1  0.93560000  0.09080000  0.19110000  1
  H  H111  1  0.94950000  0.67290000  0.75410000  1
  H  H112  1  0.95810000  0.11450000  0.77900000  1
  H  H113  1  0.96080000  0.76910000  0.50700000  1
  H  H114  1  0.98470000  0.24530000  0.43480000  1
  H  H115  1  0.98750000  0.37310000  0.51610000  1
  H  H116  1  0.98850000  0.72360000  0.02280000  1
  H  H117  1  0.99510000  0.34400000  0.89970000  1
  H  H118  1  0.99560000  0.04270000  0.65640000  1
  H  H119  1  0.99850000  0.89630000  0.63730000  1
  C  C120  1  0.00140000  0.75510000  0.06337000  1
  C  C121  1  0.01010000  0.87170000  0.79406000  1
  C  C122  1  0.01090000  0.71530000  0.10944000  1
  C  C123  1  0.01170000  0.84320000  0.07942000  1
  C  C124  1  0.02500000  0.78390000  0.78241000  1
  C  C125  1  0.02940000  0.76410000  0.16960000  1
  C  C126  1  0.02960000  0.53590000  0.63061000  1
  C  C127  1  0.03270000  0.85210000  0.18043000  1
  C  C128  1  0.03560000  0.57970000  0.58679000  1
  C  C129  1  0.04570000  0.25910000  0.46058000  1
  C  C130  1  0.04830000  0.35620000  0.49046000  1
  C  C131  1  0.05160000  0.40540000  0.44343000  1
  C  C132  1  0.05160000  0.72620000  0.22167000  1
  C  C133  1  0.05840000  0.07730000  0.37458000  1
  C  C134  1  0.05900000  0.26830000  0.23877000  1
  C  C135  1  0.06100000  0.98900000  0.36285000  1
  C  C136  1  0.08000000  0.27380000  0.62729000  1
  C  C137  1  0.08420000  0.09670000  0.21615000  1
  C  C138  1  0.11180000  0.20150000  0.07665000  1
  C  C139  1  0.12710000  0.74950000  0.79613000  1
  C  C140  1  0.13890000  0.22280000  0.42170000  1
  C  C141  1  0.14140000  0.12680000  0.40440000  1
  C  C142  1  0.14340000  0.43650000  0.42712000  1
  C  C143  1  0.14410000  0.47960000  0.38263000  1
  C  C144  1  0.16250000  0.15490000  0.23833000  1
  C  C145  1  0.18190000  0.13800000  0.07697000  1
  C  C146  1  0.18970000  0.24630000  0.60875000  1
  C  C147  1  0.21140000  0.92570000  0.57475000  1
  C  C148  1  0.21410000  0.78660000  0.49191000  1
  C  C149  1  0.21460000  0.93910000  0.67731000  1
  C  C150  1  0.21600000  0.83720000  0.55904000  1
  C  C151  1  0.21740000  0.16070000  0.59198000  1
  C  C152  1  0.21870000  0.85080000  0.66736000  1
  C  C153  1  0.22000000  0.79970000  0.60724000  1
  C  C154  1  0.22190000  0.99450000  0.40497000  1
  C  C155  1  0.22420000  0.08220000  0.41830000  1
  C  C156  1  0.23380000  0.30520000  0.10855000  1
  C  C157  1  0.26620000  0.30520000  0.60855000  1
  C  C158  1  0.27580000  0.08220000  0.91830000  1
  C  C159  1  0.27810000  0.99450000  0.90497000  1
  C  C160  1  0.28000000  0.79970000  0.10724000  1
  C  C161  1  0.28130000  0.85080000  0.16736000  1
  C  C162  1  0.28260000  0.16070000  0.09198000  1
  C  C163  1  0.28400000  0.83720000  0.05904000  1
  C  C164  1  0.28540000  0.93910000  0.17731000  1
  C  C165  1  0.28590000  0.78660000  0.99191000  1
  C  C166  1  0.28860000  0.92570000  0.07475000  1
  C  C167  1  0.31030000  0.24630000  0.10875000  1
  C  C168  1  0.31810000  0.13800000  0.57697000  1
  C  C169  1  0.33750000  0.15490000  0.73833000  1
  C  C170  1  0.35590000  0.47960000  0.88263000  1
  C  C171  1  0.35660000  0.43650000  0.92712000  1
  C  C172  1  0.35860000  0.12680000  0.90440000  1
  C  C173  1  0.36110000  0.22280000  0.92170000  1
  C  C174  1  0.37290000  0.74950000  0.29613000  1
  C  C175  1  0.38820000  0.20150000  0.57665000  1
  C  C176  1  0.41580000  0.09670000  0.71615000  1
  C  C177  1  0.42000000  0.27380000  0.12729000  1
  C  C178  1  0.43900000  0.98900000  0.86285000  1
  C  C179  1  0.44100000  0.26830000  0.73877000  1
  C  C180  1  0.44160000  0.07730000  0.87458000  1
  C  C181  1  0.44840000  0.40540000  0.94343000  1
  C  C182  1  0.44840000  0.72620000  0.72167000  1
  C  C183  1  0.45170000  0.35620000  0.99046000  1
  C  C184  1  0.45430000  0.25910000  0.96058000  1
  C  C185  1  0.46440000  0.57970000  0.08679000  1
  C  C186  1  0.46730000  0.85210000  0.68043000  1
  C  C187  1  0.47040000  0.53590000  0.13061000  1
  C  C188  1  0.47060000  0.76410000  0.66960000  1
  C  C189  1  0.47500000  0.78390000  0.28241000  1
  C  C190  1  0.48830000  0.84320000  0.57942000  1
  C  C191  1  0.48910000  0.71530000  0.60944000  1
  C  C192  1  0.48990000  0.87170000  0.29406000  1
  C  C193  1  0.49860000  0.75510000  0.56337000  1
  C  C194  1  0.50140000  0.24490000  0.43663000  1
  C  C195  1  0.51010000  0.12830000  0.70594000  1
  C  C196  1  0.51090000  0.28470000  0.39056000  1
  C  C197  1  0.51170000  0.15680000  0.42058000  1
  C  C198  1  0.52500000  0.21610000  0.71759000  1
  C  C199  1  0.52940000  0.23590000  0.33040000  1
  C  C200  1  0.52960000  0.46410000  0.86939000  1
  C  C201  1  0.53270000  0.14790000  0.31957000  1
  C  C202  1  0.53560000  0.42030000  0.91321000  1
  C  C203  1  0.54570000  0.74090000  0.03942000  1
  C  C204  1  0.54830000  0.64380000  0.00954000  1
  C  C205  1  0.55160000  0.27380000  0.27833000  1
  C  C206  1  0.55160000  0.59460000  0.05657000  1
  C  C207  1  0.55840000  0.92270000  0.12542000  1
  C  C208  1  0.55900000  0.73170000  0.26123000  1
  C  C209  1  0.56100000  0.01100000  0.13715000  1
  C  C210  1  0.58000000  0.72620000  0.87271000  1
  C  C211  1  0.58420000  0.90330000  0.28385000  1
  C  C212  1  0.61180000  0.79850000  0.42335000  1
  C  C213  1  0.62710000  0.25050000  0.70387000  1
  C  C214  1  0.63890000  0.77720000  0.07830000  1
  C  C215  1  0.64140000  0.87320000  0.09560000  1
  C  C216  1  0.64340000  0.56350000  0.07288000  1
  C  C217  1  0.64410000  0.52040000  0.11737000  1
  C  C218  1  0.66250000  0.84510000  0.26167000  1
  C  C219  1  0.68190000  0.86200000  0.42303000  1
  C  C220  1  0.68970000  0.75370000  0.89125000  1
  C  C221  1  0.71140000  0.07430000  0.92525000  1
  C  C222  1  0.71410000  0.21340000  0.00809000  1
  C  C223  1  0.71460000  0.06090000  0.82269000  1
  C  C224  1  0.71600000  0.16280000  0.94096000  1
  C  C225  1  0.71740000  0.83930000  0.90802000  1
  C  C226  1  0.71870000  0.14920000  0.83264000  1
  C  C227  1  0.72000000  0.20030000  0.89276000  1
  C  C228  1  0.72190000  0.00550000  0.09503000  1
  C  C229  1  0.72420000  0.91780000  0.08170000  1
  C  C230  1  0.73380000  0.69480000  0.39145000  1
  C  C231  1  0.76620000  0.69480000  0.89145000  1
  C  C232  1  0.77580000  0.91780000  0.58170000  1
  C  C233  1  0.77810000  0.00550000  0.59503000  1
  C  C234  1  0.78000000  0.20030000  0.39276000  1
  C  C235  1  0.78130000  0.14920000  0.33264000  1
  C  C236  1  0.78260000  0.83930000  0.40802000  1
  C  C237  1  0.78400000  0.16280000  0.44096000  1
  C  C238  1  0.78540000  0.06090000  0.32269000  1
  C  C239  1  0.78590000  0.21340000  0.50809000  1
  C  C240  1  0.78860000  0.07430000  0.42525000  1
  C  C241  1  0.81030000  0.75370000  0.39125000  1
  C  C242  1  0.81810000  0.86200000  0.92303000  1
  C  C243  1  0.83750000  0.84510000  0.76167000  1
  C  C244  1  0.85590000  0.52040000  0.61737000  1
  C  C245  1  0.85660000  0.56350000  0.57288000  1
  C  C246  1  0.85860000  0.87320000  0.59560000  1
  C  C247  1  0.86110000  0.77720000  0.57830000  1
  C  C248  1  0.87290000  0.25050000  0.20387000  1
  C  C249  1  0.88820000  0.79850000  0.92335000  1
  C  C250  1  0.91580000  0.90330000  0.78385000  1
  C  C251  1  0.92000000  0.72620000  0.37271000  1
  C  C252  1  0.93900000  0.01100000  0.63715000  1
  C  C253  1  0.94100000  0.73170000  0.76123000  1
  C  C254  1  0.94160000  0.92270000  0.62542000  1
  C  C255  1  0.94840000  0.27380000  0.77833000  1
  C  C256  1  0.94840000  0.59460000  0.55657000  1
  C  C257  1  0.95170000  0.64380000  0.50954000  1
  C  C258  1  0.95430000  0.74090000  0.53942000  1
  C  C259  1  0.96440000  0.42030000  0.41321000  1
  C  C260  1  0.96730000  0.14790000  0.81957000  1
  C  C261  1  0.97040000  0.46410000  0.36939000  1
  C  C262  1  0.97060000  0.23590000  0.83040000  1
  C  C263  1  0.97500000  0.21610000  0.21759000  1
  C  C264  1  0.98830000  0.15680000  0.92058000  1
  C  C265  1  0.98910000  0.28470000  0.89056000  1
  C  C266  1  0.98990000  0.12830000  0.20594000  1
  C  C267  1  0.99860000  0.24490000  0.93663000  1
  S  S268  1  0.01233000  0.90784000  0.02724000  1
  S  S269  1  0.02084000  0.82275000  0.94177000  1
  S  S270  1  0.20889000  0.12691000  0.75249000  1
  S  S271  1  0.21867000  0.00378000  0.75579000  1
  S  S272  1  0.28133000  0.00378000  0.25579000  1
  S  S273  1  0.29111000  0.12691000  0.25249000  1
  S  S274  1  0.47916000  0.82275000  0.44177000  1
  S  S275  1  0.48767000  0.90784000  0.52724000  1
  S  S276  1  0.51233000  0.09216000  0.47276000  1
  S  S277  1  0.52084000  0.17725000  0.55823000  1
  S  S278  1  0.70889000  0.87309000  0.74751000  1
  S  S279  1  0.71867000  0.99622000  0.74421000  1
  S  S280  1  0.78133000  0.99622000  0.24421000  1
  S  S281  1  0.79111000  0.87309000  0.24751000  1
  S  S282  1  0.97916000  0.17725000  0.05823000  1
  S  S283  1  0.98767000  0.09216000  0.97276000  1
  N  N284  1  0.02370000  0.89222000  0.13720000  1
  N  N285  1  0.05970000  0.49347000  0.35332000  1
  N  N286  1  0.13640000  0.28400000  0.09170000  1
  N  N287  1  0.14070000  0.94734000  0.37779000  1
  N  N288  1  0.15180000  0.23995000  0.24972000  1
  N  N289  1  0.21100000  0.97723000  0.63250000  1
  N  N290  1  0.28900000  0.97723000  0.13250000  1
  N  N291  1  0.34820000  0.23995000  0.74972000  1
  N  N292  1  0.35930000  0.94734000  0.87779000  1
  N  N293  1  0.36360000  0.28400000  0.59170000  1
  N  N294  1  0.44030000  0.49347000  0.85332000  1
  N  N295  1  0.47630000  0.89222000  0.63720000  1
  N  N296  1  0.52370000  0.10778000  0.36280000  1
  N  N297  1  0.55970000  0.50653000  0.14668000  1
  N  N298  1  0.63640000  0.71600000  0.40830000  1
  N  N299  1  0.64070000  0.05266000  0.12221000  1
  N  N300  1  0.65180000  0.76005000  0.25028000  1
  N  N301  1  0.71100000  0.02277000  0.86750000  1
  N  N302  1  0.78900000  0.02277000  0.36750000  1
  N  N303  1  0.84820000  0.76005000  0.75028000  1
  N  N304  1  0.85930000  0.05266000  0.62221000  1
  N  N305  1  0.86360000  0.71600000  0.90830000  1
  N  N306  1  0.94030000  0.50653000  0.64668000  1
  N  N307  1  0.97630000  0.10778000  0.86280000  1
  O  O308  1  0.01060000  0.22255000  0.60489000  1
  O  O309  1  0.05790000  0.77960000  0.27369000  1
  O  O310  1  0.05990000  0.64845000  0.21150000  1
  O  O311  1  0.06920000  0.34830000  0.66230000  1
  O  O312  1  0.13360000  0.67117000  0.79342000  1
  O  O313  1  0.19290000  0.65831000  0.35377000  1
  O  O314  1  0.19970000  0.80225000  0.80925000  1
  O  O315  1  0.21000000  0.70635000  0.47763000  1
  O  O316  1  0.21780000  0.83074000  0.45448000  1
  O  O317  1  0.28220000  0.83074000  0.95448000  1
  O  O318  1  0.29000000  0.70635000  0.97763000  1
  O  O319  1  0.30030000  0.80225000  0.30925000  1
  O  O320  1  0.30710000  0.65831000  0.85377000  1
  O  O321  1  0.36640000  0.67117000  0.29342000  1
  O  O322  1  0.43080000  0.34830000  0.16230000  1
  O  O323  1  0.44010000  0.64845000  0.71150000  1
  O  O324  1  0.44210000  0.77960000  0.77369000  1
  O  O325  1  0.48940000  0.22255000  0.10489000  1
  O  O326  1  0.51060000  0.77745000  0.89511000  1
  O  O327  1  0.55790000  0.22040000  0.22631000  1
  O  O328  1  0.55990000  0.35155000  0.28850000  1
  O  O329  1  0.56920000  0.65170000  0.83770000  1
  O  O330  1  0.63360000  0.32883000  0.70658000  1
  O  O331  1  0.69290000  0.34169000  0.14623000  1
  O  O332  1  0.69970000  0.19775000  0.69075000  1
  O  O333  1  0.71000000  0.29365000  0.02237000  1
  O  O334  1  0.71780000  0.16926000  0.04552000  1
  O  O335  1  0.78220000  0.16926000  0.54552000  1
  O  O336  1  0.79000000  0.29365000  0.52237000  1
  O  O337  1  0.80030000  0.19775000  0.19075000  1
  O  O338  1  0.80710000  0.34169000  0.64623000  1
  O  O339  1  0.86640000  0.32883000  0.20658000  1
  O  O340  1  0.93080000  0.65170000  0.33770000  1
  O  O341  1  0.94010000  0.35155000  0.78850000  1
  O  O342  1  0.94210000  0.22040000  0.72631000  1
  O  O343  1  0.98940000  0.77745000  0.39511000  1
