# generated using pymatgen
data_Mn3H40C52O19
_symmetry_space_group_name_H-M   'P 1'
_cell_length_a   11.30310000
_cell_length_b   24.23340000
_cell_length_c   36.07900000
_cell_angle_alpha   98.21300000
_cell_angle_beta   90.00000000
_cell_angle_gamma   90.00000000
_symmetry_Int_Tables_number   1
_chemical_formula_structural   Mn3H40C52O19
_chemical_formula_sum   'Mn12 H160 C208 O76'
_cell_volume   9781.13429205
_cell_formula_units_Z   4
loop_
 _symmetry_equiv_pos_site_id
 _symmetry_equiv_pos_as_xyz
  1  'x, y, z'
loop_
 _atom_site_type_symbol
 _atom_site_label
 _atom_site_symmetry_multiplicity
 _atom_site_fract_x
 _atom_site_fract_y
 _atom_site_fract_z
 _atom_site_occupancy
  Mn  Mn0  1  0.10115000  0.30340000  0.09711000  1
  Mn  Mn1  1  0.12099000  0.28415000  0.62105000  1
  Mn  Mn2  1  0.15547000  0.67436000  0.34142000  1
  Mn  Mn3  1  0.34453000  0.67436000  0.84142000  1
  Mn  Mn4  1  0.37901000  0.28415000  0.12105000  1
  Mn  Mn5  1  0.39885000  0.30340000  0.59711000  1
  Mn  Mn6  1  0.60115000  0.69660000  0.40289000  1
  Mn  Mn7  1  0.62099000  0.71585000  0.87895000  1
  Mn  Mn8  1  0.65547000  0.32564000  0.15858000  1
  Mn  Mn9  1  0.84453000  0.32564000  0.65858000  1
  Mn  Mn10  1  0.87901000  0.71585000  0.37895000  1
  Mn  Mn11  1  0.89885000  0.69660000  0.90289000  1
  H  H12  1  0.00120000  0.05100000  0.35550000  1
  H  H13  1  0.01380000  0.85950000  0.54100000  1
  H  H14  1  0.01390000  0.94770000  0.68770000  1
  H  H15  1  0.03130000  0.32260000  0.77130000  1
  H  H16  1  0.03480000  0.18560000  0.51760000  1
  H  H17  1  0.04150000  0.84810000  0.68110000  1
  H  H18  1  0.04870000  0.50260000  0.39630000  1
  H  H19  1  0.04910000  0.41500000  0.60300000  1
  H  H20  1  0.05800000  0.33333333  0.54480000  1
  H  H21  1  0.06570000  0.74490000  0.67400000  1
  H  H22  1  0.06640000  0.03480000  0.66700000  1
  H  H23  1  0.06920000  0.84900000  0.63860000  1
  H  H24  1  0.07290000  0.34570000  0.24810000  1
  H  H25  1  0.07310000  0.79520000  0.81390000  1
  H  H26  1  0.07440000  0.34190000  0.42190000  1
  H  H27  1  0.07980000  0.85050000  0.76740000  1
  H  H28  1  0.08810000  0.32590000  0.48070000  1
  H  H29  1  0.09190000  0.12550000  0.65780000  1
  H  H30  1  0.09650000  0.64680000  0.66090000  1
  H  H31  1  0.09990000  0.27740000  0.41320000  1
  H  H32  1  0.11380000  0.75460000  0.63460000  1
  H  H33  1  0.13350000  0.20540000  0.98550000  1
  H  H34  1  0.14570000  0.65100000  0.62070000  1
  H  H35  1  0.15830000  0.49750000  0.13960000  1
  H  H36  1  0.16650000  0.31330000  0.81760000  1
  H  H37  1  0.16760000  0.35000000  0.36230000  1
  H  H38  1  0.18100000  0.28530000  0.35020000  1
  H  H39  1  0.18220000  0.16300000  0.92420000  1
  H  H40  1  0.19650000  0.16170000  0.30510000  1
  H  H41  1  0.20880000  0.35420000  0.20250000  1
  H  H42  1  0.21580000  0.16030000  0.37170000  1
  H  H43  1  0.21750000  0.94070000  0.82450000  1
  H  H44  1  0.22020000  0.21180000  0.69450000  1
  H  H45  1  0.22430000  0.71610000  0.97400000  1
  H  H46  1  0.22670000  0.09760000  0.29710000  1
  H  H47  1  0.22850000  0.16100000  0.74470000  1
  H  H48  1  0.24150000  0.58170000  0.64110000  1
  H  H49  1  0.24330000  0.09590000  0.36620000  1
  H  H50  1  0.24440000  0.72470000  0.53670000  1
  H  H51  1  0.24560000  0.84890000  0.83140000  1
  H  H52  1  0.25440000  0.84890000  0.33140000  1
  H  H53  1  0.25560000  0.72470000  0.03670000  1
  H  H54  1  0.25670000  0.09590000  0.86620000  1
  H  H55  1  0.25850000  0.58170000  0.14110000  1
  H  H56  1  0.27150000  0.16100000  0.24470000  1
  H  H57  1  0.27330000  0.09760000  0.79710000  1
  H  H58  1  0.27570000  0.71610000  0.47400000  1
  H  H59  1  0.27980000  0.21180000  0.19450000  1
  H  H60  1  0.28250000  0.94070000  0.32450000  1
  H  H61  1  0.28420000  0.16030000  0.87170000  1
  H  H62  1  0.29120000  0.35420000  0.70250000  1
  H  H63  1  0.30350000  0.16170000  0.80510000  1
  H  H64  1  0.31780000  0.16300000  0.42420000  1
  H  H65  1  0.31900000  0.28530000  0.85020000  1
  H  H66  1  0.33240000  0.35000000  0.86230000  1
  H  H67  1  0.33350000  0.31330000  0.31760000  1
  H  H68  1  0.34170000  0.49750000  0.63960000  1
  H  H69  1  0.35430000  0.65100000  0.12070000  1
  H  H70  1  0.36650000  0.20540000  0.48550000  1
  H  H71  1  0.38620000  0.75460000  0.13460000  1
  H  H72  1  0.40010000  0.27740000  0.91320000  1
  H  H73  1  0.40350000  0.64680000  0.16090000  1
  H  H74  1  0.40810000  0.12550000  0.15780000  1
  H  H75  1  0.41190000  0.32590000  0.98070000  1
  H  H76  1  0.42020000  0.85050000  0.26740000  1
  H  H77  1  0.42560000  0.34190000  0.92190000  1
  H  H78  1  0.42690000  0.79520000  0.31390000  1
  H  H79  1  0.42710000  0.34570000  0.74810000  1
  H  H80  1  0.43080000  0.84900000  0.13860000  1
  H  H81  1  0.43360000  0.03480000  0.16700000  1
  H  H82  1  0.43430000  0.74490000  0.17400000  1
  H  H83  1  0.44200000  0.33333333  0.04480000  1
  H  H84  1  0.45090000  0.41500000  0.10300000  1
  H  H85  1  0.45130000  0.50260000  0.89630000  1
  H  H86  1  0.45850000  0.84810000  0.18110000  1
  H  H87  1  0.46520000  0.18560000  0.01760000  1
  H  H88  1  0.46870000  0.32260000  0.27130000  1
  H  H89  1  0.48610000  0.94770000  0.18770000  1
  H  H90  1  0.48620000  0.85950000  0.04100000  1
  H  H91  1  0.49880000  0.05100000  0.85550000  1
  H  H92  1  0.50120000  0.94900000  0.14450000  1
  H  H93  1  0.51380000  0.14050000  0.95900000  1
  H  H94  1  0.51390000  0.05230000  0.81230000  1
  H  H95  1  0.53130000  0.67740000  0.72870000  1
  H  H96  1  0.53480000  0.81440000  0.98240000  1
  H  H97  1  0.54150000  0.15190000  0.81890000  1
  H  H98  1  0.54870000  0.49740000  0.10370000  1
  H  H99  1  0.54910000  0.58500000  0.89700000  1
  H  H100  1  0.55800000  0.66666667  0.95520000  1
  H  H101  1  0.56570000  0.25510000  0.82600000  1
  H  H102  1  0.56640000  0.96520000  0.83300000  1
  H  H103  1  0.56920000  0.15100000  0.86140000  1
  H  H104  1  0.57290000  0.65430000  0.25190000  1
  H  H105  1  0.57310000  0.20480000  0.68610000  1
  H  H106  1  0.57440000  0.65810000  0.07810000  1
  H  H107  1  0.57980000  0.14950000  0.73260000  1
  H  H108  1  0.58810000  0.67410000  0.01930000  1
  H  H109  1  0.59190000  0.87450000  0.84220000  1
  H  H110  1  0.59650000  0.35320000  0.83910000  1
  H  H111  1  0.59990000  0.72260000  0.08680000  1
  H  H112  1  0.61380000  0.24540000  0.86540000  1
  H  H113  1  0.63350000  0.79460000  0.51450000  1
  H  H114  1  0.64570000  0.34900000  0.87930000  1
  H  H115  1  0.65830000  0.50250000  0.36040000  1
  H  H116  1  0.66650000  0.68670000  0.68240000  1
  H  H117  1  0.66760000  0.65000000  0.13770000  1
  H  H118  1  0.68100000  0.71470000  0.14980000  1
  H  H119  1  0.68220000  0.83700000  0.57580000  1
  H  H120  1  0.69650000  0.83830000  0.19490000  1
  H  H121  1  0.70880000  0.64580000  0.29750000  1
  H  H122  1  0.71580000  0.83970000  0.12830000  1
  H  H123  1  0.71750000  0.05930000  0.67550000  1
  H  H124  1  0.72020000  0.78820000  0.80550000  1
  H  H125  1  0.72430000  0.28390000  0.52600000  1
  H  H126  1  0.72670000  0.90240000  0.20290000  1
  H  H127  1  0.72850000  0.83900000  0.75530000  1
  H  H128  1  0.74150000  0.41830000  0.85890000  1
  H  H129  1  0.74330000  0.90410000  0.13380000  1
  H  H130  1  0.74440000  0.27530000  0.96330000  1
  H  H131  1  0.74560000  0.15110000  0.66860000  1
  H  H132  1  0.75440000  0.15110000  0.16860000  1
  H  H133  1  0.75560000  0.27530000  0.46330000  1
  H  H134  1  0.75670000  0.90410000  0.63380000  1
  H  H135  1  0.75850000  0.41830000  0.35890000  1
  H  H136  1  0.77150000  0.83900000  0.25530000  1
  H  H137  1  0.77330000  0.90240000  0.70290000  1
  H  H138  1  0.77570000  0.28390000  0.02600000  1
  H  H139  1  0.77980000  0.78820000  0.30550000  1
  H  H140  1  0.78250000  0.05930000  0.17550000  1
  H  H141  1  0.78420000  0.83970000  0.62830000  1
  H  H142  1  0.79120000  0.64580000  0.79750000  1
  H  H143  1  0.80350000  0.83830000  0.69490000  1
  H  H144  1  0.81780000  0.83700000  0.07580000  1
  H  H145  1  0.81900000  0.71470000  0.64980000  1
  H  H146  1  0.83240000  0.65000000  0.63770000  1
  H  H147  1  0.83350000  0.68670000  0.18240000  1
  H  H148  1  0.84170000  0.50250000  0.86040000  1
  H  H149  1  0.85430000  0.34900000  0.37930000  1
  H  H150  1  0.86650000  0.79460000  0.01450000  1
  H  H151  1  0.88620000  0.24540000  0.36540000  1
  H  H152  1  0.90010000  0.72260000  0.58680000  1
  H  H153  1  0.90350000  0.35320000  0.33910000  1
  H  H154  1  0.90810000  0.87450000  0.34220000  1
  H  H155  1  0.91190000  0.67410000  0.51930000  1
  H  H156  1  0.92020000  0.14950000  0.23260000  1
  H  H157  1  0.92560000  0.65810000  0.57810000  1
  H  H158  1  0.92690000  0.20480000  0.18610000  1
  H  H159  1  0.92710000  0.65430000  0.75190000  1
  H  H160  1  0.93080000  0.15100000  0.36140000  1
  H  H161  1  0.93360000  0.96520000  0.33300000  1
  H  H162  1  0.93430000  0.25510000  0.32600000  1
  H  H163  1  0.94200000  0.66666667  0.45520000  1
  H  H164  1  0.95090000  0.58500000  0.39700000  1
  H  H165  1  0.95130000  0.49740000  0.60370000  1
  H  H166  1  0.95850000  0.15190000  0.31890000  1
  H  H167  1  0.96520000  0.81440000  0.48240000  1
  H  H168  1  0.96870000  0.67740000  0.22870000  1
  H  H169  1  0.98610000  0.05230000  0.31230000  1
  H  H170  1  0.98620000  0.14050000  0.45900000  1
  H  H171  1  0.99880000  0.94900000  0.64450000  1
  C  C172  1  0.00080000  0.05790000  0.66666667  1
  C  C173  1  0.00340000  0.80480000  0.80273000  1
  C  C174  1  0.00380000  0.67790000  0.47157000  1
  C  C175  1  0.00750000  0.83700000  0.77449000  1
  C  C176  1  0.00820000  0.84420000  0.65640000  1
  C  C177  1  0.01330000  0.30750000  0.36888000  1
  C  C178  1  0.01450000  0.31750000  0.49001000  1
  C  C179  1  0.01620000  0.11240000  0.66159000  1
  C  C180  1  0.03030000  0.49740000  0.61090000  1
  C  C181  1  0.04240000  0.30630000  0.41064000  1
  C  C182  1  0.04250000  0.05680000  0.33276000  1
  C  C183  1  0.04330000  0.74710000  0.64834000  1
  C  C184  1  0.05970000  0.34010000  0.70096000  1
  C  C185  1  0.06280000  0.15360000  0.46399000  1
  C  C186  1  0.06390000  0.79350000  0.34570000  1
  C  C187  1  0.07460000  0.64600000  0.63488000  1
  C  C188  1  0.07530000  0.69920000  0.53387000  1
  C  C189  1  0.07990000  0.85160000  0.33798000  1
  C  C190  1  0.08750000  0.54760000  0.62244000  1
  C  C191  1  0.08890000  0.44840000  0.61016000  1
  C  C192  1  0.09230000  0.18080000  0.49901000  1
  C  C193  1  0.09410000  0.11500000  0.33732000  1
  C  C194  1  0.09510000  0.15030000  0.24355000  1
  C  C195  1  0.10530000  0.21360000  0.18520000  1
  C  C196  1  0.10880000  0.96290000  0.32871000  1
  C  C197  1  0.10970000  0.24760000  0.15456000  1
  C  C198  1  0.11150000  0.32670000  0.76663000  1
  C  C199  1  0.11220000  0.68970000  0.45765000  1
  C  C200  1  0.12860000  0.31690000  0.34981000  1
  C  C201  1  0.13460000  0.68480000  0.41720000  1
  C  C202  1  0.14730000  0.33820000  0.73153000  1
  C  C203  1  0.14850000  0.14600000  0.43650000  1
  C  C204  1  0.15280000  0.34050000  0.25278000  1
  C  C205  1  0.16280000  0.12450000  0.30178000  1
  C  C206  1  0.18060000  0.12340000  0.36970000  1
  C  C207  1  0.18360000  0.71240000  0.52019000  1
  C  C208  1  0.18850000  0.32830000  0.28757000  1
  C  C209  1  0.18930000  0.87250000  0.33230000  1
  C  C210  1  0.19180000  0.32140000  0.79446000  1
  C  C211  1  0.20180000  0.70740000  0.48290000  1
  C  C212  1  0.20240000  0.16900000  0.23247000  1
  C  C213  1  0.20310000  0.54810000  0.63317000  1
  C  C214  1  0.20590000  0.20120000  0.50721000  1
  C  C215  1  0.20610000  0.44770000  0.61985000  1
  C  C216  1  0.20670000  0.92740000  0.32790000  1
  C  C217  1  0.20700000  0.20010000  0.20261000  1
  C  C218  1  0.21040000  0.19330000  0.98006000  1
  C  C219  1  0.22630000  0.39480000  0.11633000  1
  C  C220  1  0.23300000  0.23160000  0.54496000  1
  C  C221  1  0.23410000  0.34560000  0.22556000  1
  C  C222  1  0.23700000  0.49770000  0.13208000  1
  C  C223  1  0.23860000  0.16650000  0.94314000  1
  C  C224  1  0.26140000  0.16650000  0.44314000  1
  C  C225  1  0.26300000  0.49770000  0.63208000  1
  C  C226  1  0.26590000  0.34560000  0.72556000  1
  C  C227  1  0.26700000  0.23160000  0.04496000  1
  C  C228  1  0.27370000  0.39480000  0.61633000  1
  C  C229  1  0.28960000  0.19330000  0.48006000  1
  C  C230  1  0.29300000  0.20010000  0.70261000  1
  C  C231  1  0.29330000  0.92740000  0.82790000  1
  C  C232  1  0.29390000  0.44770000  0.11985000  1
  C  C233  1  0.29410000  0.20120000  0.00721000  1
  C  C234  1  0.29690000  0.54810000  0.13317000  1
  C  C235  1  0.29760000  0.16900000  0.73247000  1
  C  C236  1  0.29820000  0.70740000  0.98290000  1
  C  C237  1  0.30820000  0.32140000  0.29446000  1
  C  C238  1  0.31070000  0.87250000  0.83230000  1
  C  C239  1  0.31150000  0.32830000  0.78757000  1
  C  C240  1  0.31640000  0.71240000  0.02019000  1
  C  C241  1  0.31940000  0.12340000  0.86970000  1
  C  C242  1  0.33720000  0.12450000  0.80178000  1
  C  C243  1  0.34720000  0.34050000  0.75278000  1
  C  C244  1  0.35150000  0.14600000  0.93650000  1
  C  C245  1  0.35270000  0.33820000  0.23153000  1
  C  C246  1  0.36540000  0.68480000  0.91720000  1
  C  C247  1  0.37140000  0.31690000  0.84981000  1
  C  C248  1  0.38780000  0.68970000  0.95765000  1
  C  C249  1  0.38850000  0.32670000  0.26663000  1
  C  C250  1  0.39030000  0.24760000  0.65456000  1
  C  C251  1  0.39120000  0.96290000  0.82871000  1
  C  C252  1  0.39470000  0.21360000  0.68520000  1
  C  C253  1  0.40490000  0.15030000  0.74355000  1
  C  C254  1  0.40590000  0.11500000  0.83732000  1
  C  C255  1  0.40770000  0.18080000  0.99901000  1
  C  C256  1  0.41110000  0.44840000  0.11016000  1
  C  C257  1  0.41250000  0.54760000  0.12244000  1
  C  C258  1  0.42010000  0.85160000  0.83798000  1
  C  C259  1  0.42470000  0.69920000  0.03387000  1
  C  C260  1  0.42540000  0.64600000  0.13488000  1
  C  C261  1  0.43610000  0.79350000  0.84570000  1
  C  C262  1  0.43720000  0.15360000  0.96399000  1
  C  C263  1  0.44030000  0.34010000  0.20096000  1
  C  C264  1  0.45670000  0.74710000  0.14834000  1
  C  C265  1  0.45750000  0.05680000  0.83276000  1
  C  C266  1  0.45760000  0.30630000  0.91064000  1
  C  C267  1  0.46970000  0.49740000  0.11090000  1
  C  C268  1  0.48380000  0.11240000  0.16159000  1
  C  C269  1  0.48550000  0.31750000  0.99001000  1
  C  C270  1  0.48670000  0.30750000  0.86888000  1
  C  C271  1  0.49180000  0.84420000  0.15640000  1
  C  C272  1  0.49250000  0.83700000  0.27449000  1
  C  C273  1  0.49620000  0.67790000  0.97157000  1
  C  C274  1  0.49660000  0.80480000  0.30273000  1
  C  C275  1  0.49920000  0.05790000  0.16670000  1
  C  C276  1  0.50080000  0.94210000  0.83330000  1
  C  C277  1  0.50340000  0.19520000  0.69727000  1
  C  C278  1  0.50380000  0.32210000  0.02843000  1
  C  C279  1  0.50750000  0.16300000  0.72551000  1
  C  C280  1  0.50820000  0.15580000  0.84360000  1
  C  C281  1  0.51330000  0.69250000  0.13112000  1
  C  C282  1  0.51450000  0.68250000  0.00999000  1
  C  C283  1  0.51620000  0.88760000  0.83841000  1
  C  C284  1  0.53030000  0.50260000  0.88910000  1
  C  C285  1  0.54240000  0.69370000  0.08936000  1
  C  C286  1  0.54250000  0.94320000  0.16724000  1
  C  C287  1  0.54330000  0.25290000  0.85166000  1
  C  C288  1  0.55970000  0.65990000  0.79904000  1
  C  C289  1  0.56280000  0.84640000  0.03601000  1
  C  C290  1  0.56390000  0.20650000  0.15430000  1
  C  C291  1  0.57460000  0.35400000  0.86512000  1
  C  C292  1  0.57530000  0.30080000  0.96613000  1
  C  C293  1  0.57990000  0.14840000  0.16202000  1
  C  C294  1  0.58750000  0.45240000  0.87756000  1
  C  C295  1  0.58890000  0.55160000  0.88984000  1
  C  C296  1  0.59230000  0.81920000  0.00099000  1
  C  C297  1  0.59410000  0.88500000  0.16268000  1
  C  C298  1  0.59510000  0.84970000  0.25645000  1
  C  C299  1  0.60530000  0.78640000  0.31480000  1
  C  C300  1  0.60880000  0.03710000  0.17129000  1
  C  C301  1  0.60970000  0.75240000  0.34544000  1
  C  C302  1  0.61150000  0.67330000  0.73337000  1
  C  C303  1  0.61220000  0.31030000  0.04235000  1
  C  C304  1  0.62860000  0.68310000  0.15019000  1
  C  C305  1  0.63460000  0.31520000  0.08280000  1
  C  C306  1  0.64730000  0.66180000  0.76847000  1
  C  C307  1  0.64850000  0.85400000  0.06350000  1
  C  C308  1  0.65280000  0.65950000  0.24722000  1
  C  C309  1  0.66280000  0.87550000  0.19822000  1
  C  C310  1  0.68060000  0.87660000  0.13030000  1
  C  C311  1  0.68360000  0.28760000  0.97981000  1
  C  C312  1  0.68850000  0.67170000  0.21243000  1
  C  C313  1  0.68930000  0.12750000  0.16770000  1
  C  C314  1  0.69180000  0.67860000  0.70554000  1
  C  C315  1  0.70180000  0.29260000  0.01710000  1
  C  C316  1  0.70240000  0.83100000  0.26753000  1
  C  C317  1  0.70310000  0.45190000  0.86683000  1
  C  C318  1  0.70590000  0.79880000  0.99279000  1
  C  C319  1  0.70610000  0.55230000  0.88015000  1
  C  C320  1  0.70670000  0.07260000  0.17210000  1
  C  C321  1  0.70700000  0.79990000  0.29739000  1
  C  C322  1  0.71040000  0.80670000  0.51994000  1
  C  C323  1  0.72630000  0.60520000  0.38367000  1
  C  C324  1  0.73300000  0.76840000  0.95504000  1
  C  C325  1  0.73410000  0.65440000  0.27444000  1
  C  C326  1  0.73700000  0.50230000  0.36792000  1
  C  C327  1  0.73860000  0.83350000  0.55686000  1
  C  C328  1  0.76140000  0.83350000  0.05686000  1
  C  C329  1  0.76300000  0.50230000  0.86792000  1
  C  C330  1  0.76590000  0.65440000  0.77444000  1
  C  C331  1  0.76700000  0.76840000  0.45504000  1
  C  C332  1  0.77370000  0.60520000  0.88367000  1
  C  C333  1  0.78960000  0.80670000  0.01994000  1
  C  C334  1  0.79300000  0.79990000  0.79739000  1
  C  C335  1  0.79330000  0.07260000  0.67210000  1
  C  C336  1  0.79390000  0.55230000  0.38015000  1
  C  C337  1  0.79410000  0.79880000  0.49279000  1
  C  C338  1  0.79690000  0.45190000  0.36683000  1
  C  C339  1  0.79760000  0.83100000  0.76753000  1
  C  C340  1  0.79820000  0.29260000  0.51710000  1
  C  C341  1  0.80820000  0.67860000  0.20554000  1
  C  C342  1  0.81070000  0.12750000  0.66770000  1
  C  C343  1  0.81150000  0.67170000  0.71243000  1
  C  C344  1  0.81640000  0.28760000  0.47981000  1
  C  C345  1  0.81940000  0.87660000  0.63030000  1
  C  C346  1  0.83720000  0.87550000  0.69822000  1
  C  C347  1  0.84720000  0.65950000  0.74722000  1
  C  C348  1  0.85150000  0.85400000  0.56350000  1
  C  C349  1  0.85270000  0.66180000  0.26847000  1
  C  C350  1  0.86540000  0.31520000  0.58280000  1
  C  C351  1  0.87140000  0.68310000  0.65019000  1
  C  C352  1  0.88780000  0.31030000  0.54235000  1
  C  C353  1  0.88850000  0.67330000  0.23337000  1
  C  C354  1  0.89030000  0.75240000  0.84544000  1
  C  C355  1  0.89120000  0.03710000  0.67129000  1
  C  C356  1  0.89470000  0.78640000  0.81480000  1
  C  C357  1  0.90490000  0.84970000  0.75645000  1
  C  C358  1  0.90590000  0.88500000  0.66268000  1
  C  C359  1  0.90770000  0.81920000  0.50099000  1
  C  C360  1  0.91110000  0.55160000  0.38984000  1
  C  C361  1  0.91250000  0.45240000  0.37756000  1
  C  C362  1  0.92010000  0.14840000  0.66202000  1
  C  C363  1  0.92470000  0.30080000  0.46613000  1
  C  C364  1  0.92540000  0.35400000  0.36512000  1
  C  C365  1  0.93610000  0.20650000  0.65430000  1
  C  C366  1  0.93720000  0.84640000  0.53601000  1
  C  C367  1  0.94030000  0.65990000  0.29904000  1
  C  C368  1  0.95670000  0.25290000  0.35166000  1
  C  C369  1  0.95750000  0.94320000  0.66724000  1
  C  C370  1  0.95760000  0.69370000  0.58936000  1
  C  C371  1  0.96970000  0.50260000  0.38910000  1
  C  C372  1  0.98380000  0.88760000  0.33841000  1
  C  C373  1  0.98550000  0.68250000  0.50999000  1
  C  C374  1  0.98670000  0.69250000  0.63112000  1
  C  C375  1  0.99180000  0.15580000  0.34360000  1
  C  C376  1  0.99250000  0.16300000  0.22551000  1
  C  C377  1  0.99620000  0.32210000  0.52843000  1
  C  C378  1  0.99660000  0.19520000  0.19727000  1
  C  C379  1  0.99920000  0.94210000  0.33333333  1
  O  O380  1  0.01540000  0.26612000  0.14151000  1
  O  O381  1  0.02110000  0.59457000  0.62130000  1
  O  O382  1  0.03890000  0.22143000  0.64681000  1
  O  O383  1  0.04050000  0.20996000  0.35247000  1
  O  O384  1  0.04620000  0.68049000  0.39442000  1
  O  O385  1  0.04980000  0.66334000  0.29198000  1
  O  O386  1  0.06780000  0.70500000  0.57211000  1
  O  O387  1  0.08190000  0.11819000  0.27117000  1
  O  O388  1  0.09890000  0.34514000  0.66885000  1
  O  O389  1  0.10010000  0.32373000  0.31209000  1
  O  O390  1  0.11280000  0.11826000  0.40278000  1
  O  O391  1  0.12300000  0.39339000  0.12865000  1
  O  O392  1  0.13500000  0.01713000  0.32528000  1
  O  O393  1  0.15150000  0.23524000  0.56908000  1
  O  O394  1  0.15340000  0.76221000  0.34324000  1
  O  O395  1  0.16600000  0.25120000  0.05082000  1
  O  O396  1  0.20620000  0.25730000  0.14018000  1
  O  O397  1  0.22720000  0.35027000  0.59815000  1
  O  O398  1  0.23630000  0.68387000  0.40417000  1
  O  O399  1  0.26370000  0.68387000  0.90417000  1
  O  O400  1  0.27280000  0.35027000  0.09815000  1
  O  O401  1  0.29380000  0.25730000  0.64018000  1
  O  O402  1  0.33400000  0.25120000  0.55082000  1
  O  O403  1  0.34660000  0.76221000  0.84324000  1
  O  O404  1  0.34850000  0.23524000  0.06908000  1
  O  O405  1  0.36500000  0.01713000  0.82528000  1
  O  O406  1  0.37700000  0.39339000  0.62865000  1
  O  O407  1  0.38720000  0.11826000  0.90278000  1
  O  O408  1  0.39990000  0.32373000  0.81209000  1
  O  O409  1  0.40110000  0.34514000  0.16885000  1
  O  O410  1  0.41810000  0.11819000  0.77117000  1
  O  O411  1  0.43220000  0.70500000  0.07211000  1
  O  O412  1  0.45020000  0.66334000  0.79198000  1
  O  O413  1  0.45380000  0.68049000  0.89442000  1
  O  O414  1  0.45950000  0.20996000  0.85247000  1
  O  O415  1  0.46110000  0.22143000  0.14681000  1
  O  O416  1  0.47890000  0.59457000  0.12130000  1
  O  O417  1  0.48460000  0.26612000  0.64151000  1
  O  O418  1  0.51540000  0.73388000  0.35849000  1
  O  O419  1  0.52110000  0.40543000  0.87870000  1
  O  O420  1  0.53890000  0.77857000  0.85319000  1
  O  O421  1  0.54050000  0.79004000  0.14753000  1
  O  O422  1  0.54620000  0.31951000  0.10558000  1
  O  O423  1  0.54980000  0.33666000  0.20802000  1
  O  O424  1  0.56780000  0.29500000  0.92789000  1
  O  O425  1  0.58190000  0.88181000  0.22883000  1
  O  O426  1  0.59890000  0.65486000  0.83115000  1
  O  O427  1  0.60010000  0.67627000  0.18791000  1
  O  O428  1  0.61280000  0.88174000  0.09722000  1
  O  O429  1  0.62300000  0.60661000  0.37135000  1
  O  O430  1  0.63500000  0.98287000  0.17472000  1
  O  O431  1  0.65150000  0.76476000  0.93092000  1
  O  O432  1  0.65340000  0.23779000  0.15676000  1
  O  O433  1  0.66600000  0.74880000  0.44918000  1
  O  O434  1  0.70620000  0.74270000  0.35982000  1
  O  O435  1  0.72720000  0.64973000  0.90185000  1
  O  O436  1  0.73630000  0.31613000  0.09583000  1
  O  O437  1  0.76370000  0.31613000  0.59583000  1
  O  O438  1  0.77280000  0.64973000  0.40185000  1
  O  O439  1  0.79380000  0.74270000  0.85982000  1
  O  O440  1  0.83400000  0.74880000  0.94918000  1
  O  O441  1  0.84660000  0.23779000  0.65676000  1
  O  O442  1  0.84850000  0.76476000  0.43092000  1
  O  O443  1  0.86500000  0.98287000  0.67472000  1
  O  O444  1  0.87700000  0.60661000  0.87135000  1
  O  O445  1  0.88720000  0.88174000  0.59722000  1
  O  O446  1  0.89990000  0.67627000  0.68791000  1
  O  O447  1  0.90110000  0.65486000  0.33115000  1
  O  O448  1  0.91810000  0.88181000  0.72883000  1
  O  O449  1  0.93220000  0.29500000  0.42789000  1
  O  O450  1  0.95020000  0.33666000  0.70802000  1
  O  O451  1  0.95380000  0.31951000  0.60558000  1
  O  O452  1  0.95950000  0.79004000  0.64753000  1
  O  O453  1  0.96110000  0.77857000  0.35319000  1
  O  O454  1  0.97890000  0.40543000  0.37870000  1
  O  O455  1  0.98460000  0.73388000  0.85849000  1
