# generated using pymatgen
data_Zn5H31C36N9O16
_symmetry_space_group_name_H-M   'P 1'
_cell_length_a   15.58500000
_cell_length_b   19.23700000
_cell_length_c   25.30500000
_cell_angle_alpha   90.00000000
_cell_angle_beta   90.00000000
_cell_angle_gamma   90.00000000
_symmetry_Int_Tables_number   1
_chemical_formula_structural   Zn5H31C36N9O16
_chemical_formula_sum   'Zn20 H124 C144 N36 O64'
_cell_volume   7586.65776173
_cell_formula_units_Z   4
loop_
 _symmetry_equiv_pos_site_id
 _symmetry_equiv_pos_as_xyz
  1  'x, y, z'
loop_
 _atom_site_type_symbol
 _atom_site_label
 _atom_site_symmetry_multiplicity
 _atom_site_fract_x
 _atom_site_fract_y
 _atom_site_fract_z
 _atom_site_occupancy
  Zn  Zn0  1  0.02841000  0.03562000  0.04951000  1
  Zn  Zn1  1  0.02841000  0.46438000  0.04951000  1
  Zn  Zn2  1  0.05378000  0.16246000  0.27113000  1
  Zn  Zn3  1  0.05378000  0.33754000  0.27113000  1
  Zn  Zn4  1  0.18421000  0.25000000  0.19614000  1
  Zn  Zn5  1  0.31579000  0.75000000  0.69614000  1
  Zn  Zn6  1  0.44622000  0.66246000  0.77113000  1
  Zn  Zn7  1  0.44622000  0.83754000  0.77113000  1
  Zn  Zn8  1  0.47159000  0.53562000  0.54951000  1
  Zn  Zn9  1  0.47159000  0.96438000  0.54951000  1
  Zn  Zn10  1  0.52841000  0.03562000  0.45049000  1
  Zn  Zn11  1  0.52841000  0.46438000  0.45049000  1
  Zn  Zn12  1  0.55378000  0.16246000  0.22887000  1
  Zn  Zn13  1  0.55378000  0.33754000  0.22887000  1
  Zn  Zn14  1  0.68421000  0.25000000  0.30386000  1
  Zn  Zn15  1  0.81579000  0.75000000  0.80386000  1
  Zn  Zn16  1  0.94622000  0.66246000  0.72887000  1
  Zn  Zn17  1  0.94622000  0.83754000  0.72887000  1
  Zn  Zn18  1  0.97159000  0.53562000  0.95049000  1
  Zn  Zn19  1  0.97159000  0.96438000  0.95049000  1
  H  H20  1  0.00830000  0.25000000  0.98760000  1
  H  H21  1  0.01480000  0.75000000  0.23850000  1
  H  H22  1  0.01700000  0.54910000  0.49440000  1
  H  H23  1  0.01700000  0.95090000  0.49440000  1
  H  H24  1  0.02060000  0.52000000  0.78090000  1
  H  H25  1  0.02060000  0.98000000  0.78090000  1
  H  H26  1  0.02820000  0.00880000  0.83870000  1
  H  H27  1  0.02820000  0.49120000  0.83870000  1
  H  H28  1  0.03150000  0.50640000  0.39590000  1
  H  H29  1  0.03150000  0.99360000  0.39590000  1
  H  H30  1  0.03370000  0.64430000  0.14710000  1
  H  H31  1  0.03370000  0.85570000  0.14710000  1
  H  H32  1  0.08640000  0.55310000  0.82040000  1
  H  H33  1  0.08640000  0.94690000  0.82040000  1
  H  H34  1  0.11690000  0.59170000  0.70950000  1
  H  H35  1  0.11690000  0.90830000  0.70950000  1
  H  H36  1  0.15300000  0.18450000  0.04930000  1
  H  H37  1  0.15300000  0.31550000  0.04930000  1
  H  H38  1  0.16590000  0.25000000  0.29010000  1
  H  H39  1  0.19670000  0.61330000  0.67550000  1
  H  H40  1  0.19670000  0.88670000  0.67550000  1
  H  H41  1  0.20370000  0.61050000  0.73730000  1
  H  H42  1  0.20370000  0.88950000  0.73730000  1
  H  H43  1  0.20650000  0.11620000  0.05680000  1
  H  H44  1  0.20650000  0.38380000  0.05680000  1
  H  H45  1  0.21310000  0.55870000  0.50130000  1
  H  H46  1  0.21310000  0.94130000  0.50130000  1
  H  H47  1  0.22980000  0.56780000  0.88300000  1
  H  H48  1  0.22980000  0.93220000  0.88300000  1
  H  H49  1  0.23160000  0.18360000  0.08800000  1
  H  H50  1  0.23160000  0.31640000  0.08800000  1
  H  H51  1  0.26840000  0.68360000  0.58800000  1
  H  H52  1  0.26840000  0.81640000  0.58800000  1
  H  H53  1  0.27020000  0.06780000  0.38300000  1
  H  H54  1  0.27020000  0.43220000  0.38300000  1
  H  H55  1  0.28690000  0.05870000  0.00130000  1
  H  H56  1  0.28690000  0.44130000  0.00130000  1
  H  H57  1  0.29350000  0.61620000  0.55680000  1
  H  H58  1  0.29350000  0.88380000  0.55680000  1
  H  H59  1  0.29630000  0.11050000  0.23730000  1
  H  H60  1  0.29630000  0.38950000  0.23730000  1
  H  H61  1  0.30330000  0.11330000  0.17550000  1
  H  H62  1  0.30330000  0.38670000  0.17550000  1
  H  H63  1  0.33410000  0.75000000  0.79010000  1
  H  H64  1  0.34700000  0.68450000  0.54930000  1
  H  H65  1  0.34700000  0.81550000  0.54930000  1
  H  H66  1  0.38310000  0.09170000  0.20950000  1
  H  H67  1  0.38310000  0.40830000  0.20950000  1
  H  H68  1  0.41360000  0.05310000  0.32040000  1
  H  H69  1  0.41360000  0.44690000  0.32040000  1
  H  H70  1  0.46630000  0.14430000  0.64710000  1
  H  H71  1  0.46630000  0.35570000  0.64710000  1
  H  H72  1  0.46850000  0.00640000  0.89590000  1
  H  H73  1  0.46850000  0.49360000  0.89590000  1
  H  H74  1  0.47180000  0.50880000  0.33870000  1
  H  H75  1  0.47180000  0.99120000  0.33870000  1
  H  H76  1  0.47940000  0.02000000  0.28090000  1
  H  H77  1  0.47940000  0.48000000  0.28090000  1
  H  H78  1  0.48300000  0.04910000  0.99440000  1
  H  H79  1  0.48300000  0.45090000  0.99440000  1
  H  H80  1  0.48520000  0.25000000  0.73850000  1
  H  H81  1  0.49170000  0.75000000  0.48760000  1
  H  H82  1  0.50830000  0.25000000  0.51240000  1
  H  H83  1  0.51480000  0.75000000  0.26150000  1
  H  H84  1  0.51700000  0.54910000  0.00560000  1
  H  H85  1  0.51700000  0.95090000  0.00560000  1
  H  H86  1  0.52060000  0.52000000  0.71910000  1
  H  H87  1  0.52060000  0.98000000  0.71910000  1
  H  H88  1  0.52820000  0.00880000  0.66130000  1
  H  H89  1  0.52820000  0.49120000  0.66130000  1
  H  H90  1  0.53150000  0.50640000  0.10410000  1
  H  H91  1  0.53150000  0.99360000  0.10410000  1
  H  H92  1  0.53370000  0.64430000  0.35290000  1
  H  H93  1  0.53370000  0.85570000  0.35290000  1
  H  H94  1  0.58640000  0.55310000  0.67960000  1
  H  H95  1  0.58640000  0.94690000  0.67960000  1
  H  H96  1  0.61690000  0.59170000  0.79050000  1
  H  H97  1  0.61690000  0.90830000  0.79050000  1
  H  H98  1  0.65300000  0.18450000  0.45070000  1
  H  H99  1  0.65300000  0.31550000  0.45070000  1
  H  H100  1  0.66590000  0.25000000  0.20990000  1
  H  H101  1  0.69670000  0.61330000  0.82450000  1
  H  H102  1  0.69670000  0.88670000  0.82450000  1
  H  H103  1  0.70370000  0.61050000  0.76270000  1
  H  H104  1  0.70370000  0.88950000  0.76270000  1
  H  H105  1  0.70650000  0.11620000  0.44320000  1
  H  H106  1  0.70650000  0.38380000  0.44320000  1
  H  H107  1  0.71310000  0.55870000  0.99870000  1
  H  H108  1  0.71310000  0.94130000  0.99870000  1
  H  H109  1  0.72980000  0.56780000  0.61700000  1
  H  H110  1  0.72980000  0.93220000  0.61700000  1
  H  H111  1  0.73160000  0.18360000  0.41200000  1
  H  H112  1  0.73160000  0.31640000  0.41200000  1
  H  H113  1  0.76840000  0.68360000  0.91200000  1
  H  H114  1  0.76840000  0.81640000  0.91200000  1
  H  H115  1  0.77020000  0.06780000  0.11700000  1
  H  H116  1  0.77020000  0.43220000  0.11700000  1
  H  H117  1  0.78690000  0.05870000  0.49870000  1
  H  H118  1  0.78690000  0.44130000  0.49870000  1
  H  H119  1  0.79350000  0.61620000  0.94320000  1
  H  H120  1  0.79350000  0.88380000  0.94320000  1
  H  H121  1  0.79630000  0.11050000  0.26270000  1
  H  H122  1  0.79630000  0.38950000  0.26270000  1
  H  H123  1  0.80330000  0.11330000  0.32450000  1
  H  H124  1  0.80330000  0.38670000  0.32450000  1
  H  H125  1  0.83410000  0.75000000  0.70990000  1
  H  H126  1  0.84700000  0.68450000  0.95070000  1
  H  H127  1  0.84700000  0.81550000  0.95070000  1
  H  H128  1  0.88310000  0.09170000  0.29050000  1
  H  H129  1  0.88310000  0.40830000  0.29050000  1
  H  H130  1  0.91360000  0.05310000  0.17960000  1
  H  H131  1  0.91360000  0.44690000  0.17960000  1
  H  H132  1  0.96630000  0.14430000  0.85290000  1
  H  H133  1  0.96630000  0.35570000  0.85290000  1
  H  H134  1  0.96850000  0.00640000  0.60410000  1
  H  H135  1  0.96850000  0.49360000  0.60410000  1
  H  H136  1  0.97180000  0.50880000  0.16130000  1
  H  H137  1  0.97180000  0.99120000  0.16130000  1
  H  H138  1  0.97940000  0.02000000  0.21910000  1
  H  H139  1  0.97940000  0.48000000  0.21910000  1
  H  H140  1  0.98300000  0.04910000  0.50560000  1
  H  H141  1  0.98300000  0.45090000  0.50560000  1
  H  H142  1  0.98520000  0.25000000  0.76150000  1
  H  H143  1  0.99170000  0.75000000  0.01240000  1
  C  C144  1  0.00300000  0.75000000  0.04850000  1
  C  C145  1  0.00710000  0.61980000  0.04660000  1
  C  C146  1  0.00710000  0.88020000  0.04660000  1
  C  C147  1  0.01120000  0.68680000  0.07450000  1
  C  C148  1  0.01120000  0.81320000  0.07450000  1
  C  C149  1  0.02550000  0.68610000  0.12940000  1
  C  C150  1  0.02550000  0.81390000  0.12940000  1
  C  C151  1  0.02700000  0.75000000  0.15740000  1
  C  C152  1  0.03070000  0.53220000  0.81720000  1
  C  C153  1  0.03070000  0.96780000  0.81720000  1
  C  C154  1  0.03560000  0.08220000  0.16510000  1
  C  C155  1  0.03560000  0.41780000  0.16510000  1
  C  C156  1  0.08710000  0.50170000  0.40870000  1
  C  C157  1  0.08710000  0.99830000  0.40870000  1
  C  C158  1  0.11470000  0.53600000  0.45460000  1
  C  C159  1  0.11470000  0.96400000  0.45460000  1
  C  C160  1  0.12060000  0.08150000  0.33640000  1
  C  C161  1  0.12060000  0.41850000  0.33640000  1
  C  C162  1  0.12730000  0.13570000  0.11810000  1
  C  C163  1  0.12730000  0.36430000  0.11810000  1
  C  C164  1  0.13960000  0.69500000  0.71120000  1
  C  C165  1  0.13960000  0.80500000  0.71120000  1
  C  C166  1  0.14720000  0.03910000  0.38380000  1
  C  C167  1  0.14720000  0.46090000  0.38380000  1
  C  C168  1  0.15530000  0.51080000  0.96650000  1
  C  C169  1  0.15530000  0.98920000  0.96650000  1
  C  C170  1  0.16660000  0.62110000  0.70810000  1
  C  C171  1  0.16660000  0.87890000  0.70810000  1
  C  C172  1  0.18460000  0.15690000  0.07420000  1
  C  C173  1  0.18460000  0.34310000  0.07420000  1
  C  C174  1  0.19700000  0.53340000  0.47150000  1
  C  C175  1  0.19700000  0.96660000  0.47150000  1
  C  C176  1  0.22990000  0.04140000  0.40130000  1
  C  C177  1  0.22990000  0.45860000  0.40130000  1
  C  C178  1  0.24510000  0.50460000  0.94620000  1
  C  C179  1  0.24510000  0.99540000  0.94620000  1
  C  C180  1  0.25490000  0.00460000  0.44620000  1
  C  C181  1  0.25490000  0.49540000  0.44620000  1
  C  C182  1  0.27010000  0.54140000  0.90130000  1
  C  C183  1  0.27010000  0.95860000  0.90130000  1
  C  C184  1  0.30300000  0.03340000  0.97150000  1
  C  C185  1  0.30300000  0.46660000  0.97150000  1
  C  C186  1  0.31540000  0.65690000  0.57420000  1
  C  C187  1  0.31540000  0.84310000  0.57420000  1
  C  C188  1  0.33340000  0.12110000  0.20810000  1
  C  C189  1  0.33340000  0.37890000  0.20810000  1
  C  C190  1  0.34470000  0.01080000  0.46650000  1
  C  C191  1  0.34470000  0.48920000  0.46650000  1
  C  C192  1  0.35280000  0.53910000  0.88380000  1
  C  C193  1  0.35280000  0.96090000  0.88380000  1
  C  C194  1  0.36040000  0.19500000  0.21120000  1
  C  C195  1  0.36040000  0.30500000  0.21120000  1
  C  C196  1  0.37270000  0.63570000  0.61810000  1
  C  C197  1  0.37270000  0.86430000  0.61810000  1
  C  C198  1  0.37940000  0.58150000  0.83640000  1
  C  C199  1  0.37940000  0.91850000  0.83640000  1
  C  C200  1  0.38530000  0.03600000  0.95460000  1
  C  C201  1  0.38530000  0.46400000  0.95460000  1
  C  C202  1  0.41290000  0.00170000  0.90870000  1
  C  C203  1  0.41290000  0.49830000  0.90870000  1
  C  C204  1  0.46440000  0.58220000  0.66510000  1
  C  C205  1  0.46440000  0.91780000  0.66510000  1
  C  C206  1  0.46930000  0.03220000  0.31720000  1
  C  C207  1  0.46930000  0.46780000  0.31720000  1
  C  C208  1  0.47300000  0.25000000  0.65740000  1
  C  C209  1  0.47450000  0.18610000  0.62940000  1
  C  C210  1  0.47450000  0.31390000  0.62940000  1
  C  C211  1  0.48880000  0.18680000  0.57450000  1
  C  C212  1  0.48880000  0.31320000  0.57450000  1
  C  C213  1  0.49290000  0.11980000  0.54660000  1
  C  C214  1  0.49290000  0.38020000  0.54660000  1
  C  C215  1  0.49700000  0.25000000  0.54850000  1
  C  C216  1  0.50300000  0.75000000  0.45150000  1
  C  C217  1  0.50710000  0.61980000  0.45340000  1
  C  C218  1  0.50710000  0.88020000  0.45340000  1
  C  C219  1  0.51120000  0.68680000  0.42550000  1
  C  C220  1  0.51120000  0.81320000  0.42550000  1
  C  C221  1  0.52550000  0.68610000  0.37060000  1
  C  C222  1  0.52550000  0.81390000  0.37060000  1
  C  C223  1  0.52700000  0.75000000  0.34260000  1
  C  C224  1  0.53070000  0.53220000  0.68280000  1
  C  C225  1  0.53070000  0.96780000  0.68280000  1
  C  C226  1  0.53560000  0.08220000  0.33490000  1
  C  C227  1  0.53560000  0.41780000  0.33490000  1
  C  C228  1  0.58710000  0.50170000  0.09130000  1
  C  C229  1  0.58710000  0.99830000  0.09130000  1
  C  C230  1  0.61470000  0.53600000  0.04540000  1
  C  C231  1  0.61470000  0.96400000  0.04540000  1
  C  C232  1  0.62060000  0.08150000  0.16360000  1
  C  C233  1  0.62060000  0.41850000  0.16360000  1
  C  C234  1  0.62730000  0.13570000  0.38190000  1
  C  C235  1  0.62730000  0.36430000  0.38190000  1
  C  C236  1  0.63960000  0.69500000  0.78880000  1
  C  C237  1  0.63960000  0.80500000  0.78880000  1
  C  C238  1  0.64720000  0.03910000  0.11620000  1
  C  C239  1  0.64720000  0.46090000  0.11620000  1
  C  C240  1  0.65530000  0.51080000  0.53350000  1
  C  C241  1  0.65530000  0.98920000  0.53350000  1
  C  C242  1  0.66666667  0.62110000  0.79190000  1
  C  C243  1  0.66666667  0.87890000  0.79190000  1
  C  C244  1  0.68460000  0.15690000  0.42580000  1
  C  C245  1  0.68460000  0.34310000  0.42580000  1
  C  C246  1  0.69700000  0.53340000  0.02850000  1
  C  C247  1  0.69700000  0.96660000  0.02850000  1
  C  C248  1  0.72990000  0.04140000  0.09870000  1
  C  C249  1  0.72990000  0.45860000  0.09870000  1
  C  C250  1  0.74510000  0.50460000  0.55380000  1
  C  C251  1  0.74510000  0.99540000  0.55380000  1
  C  C252  1  0.75490000  0.00460000  0.05380000  1
  C  C253  1  0.75490000  0.49540000  0.05380000  1
  C  C254  1  0.77010000  0.54140000  0.59870000  1
  C  C255  1  0.77010000  0.95860000  0.59870000  1
  C  C256  1  0.80300000  0.03340000  0.52850000  1
  C  C257  1  0.80300000  0.46660000  0.52850000  1
  C  C258  1  0.81540000  0.65690000  0.92580000  1
  C  C259  1  0.81540000  0.84310000  0.92580000  1
  C  C260  1  0.83340000  0.12110000  0.29190000  1
  C  C261  1  0.83340000  0.37890000  0.29190000  1
  C  C262  1  0.84470000  0.01080000  0.03350000  1
  C  C263  1  0.84470000  0.48920000  0.03350000  1
  C  C264  1  0.85280000  0.53910000  0.61620000  1
  C  C265  1  0.85280000  0.96090000  0.61620000  1
  C  C266  1  0.86040000  0.19500000  0.28880000  1
  C  C267  1  0.86040000  0.30500000  0.28880000  1
  C  C268  1  0.87270000  0.63570000  0.88190000  1
  C  C269  1  0.87270000  0.86430000  0.88190000  1
  C  C270  1  0.87940000  0.58150000  0.66360000  1
  C  C271  1  0.87940000  0.91850000  0.66360000  1
  C  C272  1  0.88530000  0.03600000  0.54540000  1
  C  C273  1  0.88530000  0.46400000  0.54540000  1
  C  C274  1  0.91290000  0.00170000  0.59130000  1
  C  C275  1  0.91290000  0.49830000  0.59130000  1
  C  C276  1  0.96440000  0.58220000  0.83490000  1
  C  C277  1  0.96440000  0.91780000  0.83490000  1
  C  C278  1  0.96930000  0.03220000  0.18280000  1
  C  C279  1  0.96930000  0.46780000  0.18280000  1
  C  C280  1  0.97300000  0.25000000  0.84260000  1
  C  C281  1  0.97450000  0.18610000  0.87060000  1
  C  C282  1  0.97450000  0.31390000  0.87060000  1
  C  C283  1  0.98880000  0.18680000  0.92550000  1
  C  C284  1  0.98880000  0.31320000  0.92550000  1
  C  C285  1  0.99290000  0.11980000  0.95340000  1
  C  C286  1  0.99290000  0.38020000  0.95340000  1
  C  C287  1  0.99700000  0.25000000  0.95150000  1
  N  N288  1  0.05910000  0.71480000  0.72120000  1
  N  N289  1  0.05910000  0.78520000  0.72120000  1
  N  N290  1  0.06910000  0.08460000  0.11610000  1
  N  N291  1  0.06910000  0.41540000  0.11610000  1
  N  N292  1  0.07010000  0.13050000  0.19570000  1
  N  N293  1  0.07010000  0.36950000  0.19570000  1
  N  N294  1  0.12870000  0.16540000  0.16570000  1
  N  N295  1  0.12870000  0.33460000  0.16570000  1
  N  N296  1  0.19100000  0.75000000  0.70390000  1
  N  N297  1  0.30900000  0.25000000  0.20390000  1
  N  N298  1  0.37130000  0.66540000  0.66570000  1
  N  N299  1  0.37130000  0.83460000  0.66570000  1
  N  N300  1  0.42990000  0.63050000  0.69570000  1
  N  N301  1  0.42990000  0.86950000  0.69570000  1
  N  N302  1  0.43090000  0.58460000  0.61610000  1
  N  N303  1  0.43090000  0.91540000  0.61610000  1
  N  N304  1  0.44090000  0.21480000  0.22120000  1
  N  N305  1  0.44090000  0.28520000  0.22120000  1
  N  N306  1  0.55910000  0.71480000  0.77880000  1
  N  N307  1  0.55910000  0.78520000  0.77880000  1
  N  N308  1  0.56910000  0.08460000  0.38390000  1
  N  N309  1  0.56910000  0.41540000  0.38390000  1
  N  N310  1  0.57010000  0.13050000  0.30430000  1
  N  N311  1  0.57010000  0.36950000  0.30430000  1
  N  N312  1  0.62870000  0.16540000  0.33430000  1
  N  N313  1  0.62870000  0.33460000  0.33430000  1
  N  N314  1  0.69100000  0.75000000  0.79610000  1
  N  N315  1  0.80900000  0.25000000  0.29610000  1
  N  N316  1  0.87130000  0.66540000  0.83430000  1
  N  N317  1  0.87130000  0.83460000  0.83430000  1
  N  N318  1  0.92990000  0.63050000  0.80430000  1
  N  N319  1  0.92990000  0.86950000  0.80430000  1
  N  N320  1  0.93090000  0.58460000  0.88390000  1
  N  N321  1  0.93090000  0.91540000  0.88390000  1
  N  N322  1  0.94090000  0.21480000  0.27880000  1
  N  N323  1  0.94090000  0.28520000  0.27880000  1
  O  O324  1  0.01550000  0.12110000  0.00170000  1
  O  O325  1  0.01550000  0.37890000  0.00170000  1
  O  O326  1  0.02420000  0.56600000  0.07190000  1
  O  O327  1  0.02420000  0.93400000  0.07190000  1
  O  O328  1  0.04350000  0.08940000  0.32710000  1
  O  O329  1  0.04350000  0.41060000  0.32710000  1
  O  O330  1  0.04540000  0.75000000  0.20880000  1
  O  O331  1  0.05290000  0.57520000  0.48150000  1
  O  O332  1  0.05290000  0.92480000  0.48150000  1
  O  O333  1  0.10060000  0.53830000  0.93790000  1
  O  O334  1  0.10060000  0.96170000  0.93790000  1
  O  O335  1  0.12480000  0.25000000  0.26520000  1
  O  O336  1  0.14050000  0.01740000  0.01040000  1
  O  O337  1  0.14050000  0.48260000  0.01040000  1
  O  O338  1  0.17490000  0.10530000  0.30710000  1
  O  O339  1  0.17490000  0.39470000  0.30710000  1
  O  O340  1  0.32510000  0.60530000  0.80710000  1
  O  O341  1  0.32510000  0.89470000  0.80710000  1
  O  O342  1  0.35950000  0.51740000  0.51040000  1
  O  O343  1  0.35950000  0.98260000  0.51040000  1
  O  O344  1  0.37520000  0.75000000  0.76520000  1
  O  O345  1  0.39940000  0.03830000  0.43790000  1
  O  O346  1  0.39940000  0.46170000  0.43790000  1
  O  O347  1  0.44710000  0.07520000  0.98150000  1
  O  O348  1  0.44710000  0.42480000  0.98150000  1
  O  O349  1  0.45460000  0.25000000  0.70880000  1
  O  O350  1  0.45650000  0.58940000  0.82710000  1
  O  O351  1  0.45650000  0.91060000  0.82710000  1
  O  O352  1  0.47580000  0.06600000  0.57190000  1
  O  O353  1  0.47580000  0.43400000  0.57190000  1
  O  O354  1  0.48450000  0.62110000  0.50170000  1
  O  O355  1  0.48450000  0.87890000  0.50170000  1
  O  O356  1  0.51550000  0.12110000  0.49830000  1
  O  O357  1  0.51550000  0.37890000  0.49830000  1
  O  O358  1  0.52420000  0.56600000  0.42810000  1
  O  O359  1  0.52420000  0.93400000  0.42810000  1
  O  O360  1  0.54350000  0.08940000  0.17290000  1
  O  O361  1  0.54350000  0.41060000  0.17290000  1
  O  O362  1  0.54540000  0.75000000  0.29120000  1
  O  O363  1  0.55290000  0.57520000  0.01850000  1
  O  O364  1  0.55290000  0.92480000  0.01850000  1
  O  O365  1  0.60060000  0.53830000  0.56210000  1
  O  O366  1  0.60060000  0.96170000  0.56210000  1
  O  O367  1  0.62480000  0.25000000  0.23480000  1
  O  O368  1  0.64050000  0.01740000  0.48960000  1
  O  O369  1  0.64050000  0.48260000  0.48960000  1
  O  O370  1  0.67490000  0.10530000  0.19290000  1
  O  O371  1  0.67490000  0.39470000  0.19290000  1
  O  O372  1  0.82510000  0.60530000  0.69290000  1
  O  O373  1  0.82510000  0.89470000  0.69290000  1
  O  O374  1  0.85950000  0.51740000  0.98960000  1
  O  O375  1  0.85950000  0.98260000  0.98960000  1
  O  O376  1  0.87520000  0.75000000  0.73480000  1
  O  O377  1  0.89940000  0.03830000  0.06210000  1
  O  O378  1  0.89940000  0.46170000  0.06210000  1
  O  O379  1  0.94710000  0.07520000  0.51850000  1
  O  O380  1  0.94710000  0.42480000  0.51850000  1
  O  O381  1  0.95460000  0.25000000  0.79120000  1
  O  O382  1  0.95650000  0.58940000  0.67290000  1
  O  O383  1  0.95650000  0.91060000  0.67290000  1
  O  O384  1  0.97580000  0.06600000  0.92810000  1
  O  O385  1  0.97580000  0.43400000  0.92810000  1
  O  O386  1  0.98450000  0.62110000  0.99830000  1
  O  O387  1  0.98450000  0.87890000  0.99830000  1
