# generated using pymatgen
data_Mg2H2C5N2O5
_symmetry_space_group_name_H-M   'P 1'
_cell_length_a   8.35870000
_cell_length_b   15.22530000
_cell_length_c   15.22530000
_cell_angle_alpha   90.00000000
_cell_angle_beta   90.00000000
_cell_angle_gamma   90.00000000
_symmetry_Int_Tables_number   1
_chemical_formula_structural   Mg2H2C5N2O5
_chemical_formula_sum   'Mg16 H16 C40 N16 O40'
_cell_volume   1937.62824166
_cell_formula_units_Z   8
loop_
 _symmetry_equiv_pos_site_id
 _symmetry_equiv_pos_as_xyz
  1  'x, y, z'
loop_
 _atom_site_type_symbol
 _atom_site_label
 _atom_site_symmetry_multiplicity
 _atom_site_fract_x
 _atom_site_fract_y
 _atom_site_fract_z
 _atom_site_occupancy
  Mg  Mg0  1  0.00000000  0.09891000  0.09891000  1
  Mg  Mg1  1  0.00000000  0.24748000  0.24748000  1
  Mg  Mg2  1  0.12003000  0.49945000  0.38943000  1
  Mg  Mg3  1  0.12997000  0.00055000  0.88943000  1
  Mg  Mg4  1  0.25000000  0.25252000  0.74748000  1
  Mg  Mg5  1  0.25000000  0.40109000  0.59891000  1
  Mg  Mg6  1  0.37003000  0.11057000  0.99945000  1
  Mg  Mg7  1  0.37997000  0.61057000  0.50055000  1
  Mg  Mg8  1  0.50000000  0.75252000  0.75252000  1
  Mg  Mg9  1  0.50000000  0.90109000  0.90109000  1
  Mg  Mg10  1  0.62003000  0.50055000  0.61057000  1
  Mg  Mg11  1  0.62997000  0.99945000  0.11057000  1
  Mg  Mg12  1  0.75000000  0.59891000  0.40109000  1
  Mg  Mg13  1  0.75000000  0.74748000  0.25252000  1
  Mg  Mg14  1  0.87003000  0.88943000  0.00055000  1
  Mg  Mg15  1  0.87997000  0.38943000  0.49945000  1
  H  H16  1  0.04160000  0.63050000  0.81290000  1
  H  H17  1  0.07730000  0.13270000  0.96300000  1
  H  H18  1  0.17270000  0.36730000  0.46300000  1
  H  H19  1  0.20840000  0.86950000  0.31290000  1
  H  H20  1  0.29160000  0.68710000  0.13050000  1
  H  H21  1  0.32730000  0.53700000  0.63270000  1
  H  H22  1  0.42270000  0.03700000  0.86730000  1
  H  H23  1  0.45840000  0.18710000  0.36950000  1
  H  H24  1  0.54160000  0.36950000  0.18710000  1
  H  H25  1  0.57730000  0.86730000  0.03700000  1
  H  H26  1  0.67270000  0.63270000  0.53700000  1
  H  H27  1  0.70840000  0.13050000  0.68710000  1
  H  H28  1  0.79160000  0.31290000  0.86950000  1
  H  H29  1  0.82730000  0.46300000  0.36730000  1
  H  H30  1  0.92270000  0.96300000  0.13270000  1
  H  H31  1  0.95840000  0.81290000  0.63050000  1
  C  C32  1  0.02454000  0.63532000  0.25578000  1
  C  C33  1  0.04053000  0.66666667  0.50375000  1
  C  C34  1  0.05642000  0.69755000  0.18323000  1
  C  C35  1  0.06342000  0.78709000  0.62832000  1
  C  C36  1  0.11533000  0.71869000  0.57477000  1
  C  C37  1  0.13467000  0.78131000  0.07477000  1
  C  C38  1  0.18658000  0.71291000  0.12832000  1
  C  C39  1  0.19358000  0.80245000  0.68323000  1
  C  C40  1  0.20947000  0.83333000  0.00375000  1
  C  C41  1  0.22546000  0.86468000  0.75578000  1
  C  C42  1  0.27454000  0.24422000  0.13532000  1
  C  C43  1  0.29053000  0.99625000  0.16667000  1
  C  C44  1  0.30642000  0.31677000  0.19755000  1
  C  C45  1  0.31342000  0.87168000  0.28709000  1
  C  C46  1  0.36533000  0.92523000  0.21869000  1
  C  C47  1  0.38467000  0.42523000  0.28131000  1
  C  C48  1  0.43658000  0.37168000  0.21291000  1
  C  C49  1  0.44358000  0.81677000  0.30245000  1
  C  C50  1  0.45947000  0.49625000  0.33333333  1
  C  C51  1  0.47546000  0.74422000  0.36468000  1
  C  C52  1  0.52454000  0.36468000  0.74422000  1
  C  C53  1  0.54053000  0.33333333  0.49625000  1
  C  C54  1  0.55642000  0.30245000  0.81677000  1
  C  C55  1  0.56342000  0.21291000  0.37168000  1
  C  C56  1  0.61533000  0.28131000  0.42523000  1
  C  C57  1  0.63467000  0.21869000  0.92523000  1
  C  C58  1  0.68658000  0.28709000  0.87168000  1
  C  C59  1  0.69358000  0.19755000  0.31677000  1
  C  C60  1  0.70947000  0.16667000  0.99625000  1
  C  C61  1  0.72546000  0.13532000  0.24422000  1
  C  C62  1  0.77454000  0.75578000  0.86468000  1
  C  C63  1  0.79053000  0.00375000  0.83333000  1
  C  C64  1  0.80642000  0.68323000  0.80245000  1
  C  C65  1  0.81342000  0.12832000  0.71291000  1
  C  C66  1  0.86533000  0.07477000  0.78131000  1
  C  C67  1  0.88467000  0.57477000  0.71869000  1
  C  C68  1  0.93658000  0.62832000  0.78709000  1
  C  C69  1  0.94358000  0.18323000  0.69755000  1
  C  C70  1  0.95947000  0.50375000  0.66666667  1
  C  C71  1  0.97546000  0.25578000  0.63532000  1
  N  N72  1  0.01746000  0.09608000  0.80426000  1
  N  N73  1  0.06473000  0.16237000  0.75339000  1
  N  N74  1  0.18527000  0.33763000  0.25339000  1
  N  N75  1  0.23254000  0.40392000  0.30426000  1
  N  N76  1  0.26746000  0.69574000  0.59608000  1
  N  N77  1  0.31473000  0.74661000  0.66237000  1
  N  N78  1  0.43527000  0.24661000  0.83763000  1
  N  N79  1  0.48254000  0.19574000  0.90392000  1
  N  N80  1  0.51746000  0.90392000  0.19574000  1
  N  N81  1  0.56473000  0.83763000  0.24661000  1
  N  N82  1  0.68527000  0.66237000  0.74661000  1
  N  N83  1  0.73254000  0.59608000  0.69574000  1
  N  N84  1  0.76746000  0.30426000  0.40392000  1
  N  N85  1  0.81473000  0.25339000  0.33763000  1
  N  N86  1  0.93527000  0.75339000  0.16237000  1
  N  N87  1  0.98254000  0.80426000  0.09608000  1
  O  O88  1  0.09776000  0.47783000  0.68291000  1
  O  O89  1  0.10917000  0.29520000  0.64647000  1
  O  O90  1  0.12034000  0.40307000  0.48660000  1
  O  O91  1  0.12182000  0.57648000  0.27458000  1
  O  O92  1  0.12243000  0.89601000  0.97424000  1
  O  O93  1  0.12757000  0.60399000  0.47424000  1
  O  O94  1  0.12818000  0.92352000  0.77458000  1
  O  O95  1  0.12966000  0.09693000  0.98660000  1
  O  O96  1  0.14083000  0.20480000  0.14647000  1
  O  O97  1  0.15224000  0.02217000  0.18291000  1
  O  O98  1  0.34776000  0.81709000  0.97783000  1
  O  O99  1  0.35917000  0.85353000  0.79520000  1
  O  O100  1  0.37034000  0.01340000  0.90307000  1
  O  O101  1  0.37182000  0.22542000  0.07648000  1
  O  O102  1  0.37243000  0.52576000  0.39601000  1
  O  O103  1  0.37757000  0.02576000  0.10399000  1
  O  O104  1  0.37818000  0.72542000  0.42352000  1
  O  O105  1  0.37966000  0.51340000  0.59693000  1
  O  O106  1  0.39083000  0.35353000  0.70480000  1
  O  O107  1  0.40224000  0.31709000  0.52217000  1
  O  O108  1  0.59776000  0.52217000  0.31709000  1
  O  O109  1  0.60917000  0.70480000  0.35353000  1
  O  O110  1  0.62034000  0.59693000  0.51340000  1
  O  O111  1  0.62182000  0.42352000  0.72542000  1
  O  O112  1  0.62243000  0.10399000  0.02576000  1
  O  O113  1  0.62757000  0.39601000  0.52576000  1
  O  O114  1  0.62818000  0.07648000  0.22542000  1
  O  O115  1  0.62966000  0.90307000  0.01340000  1
  O  O116  1  0.64083000  0.79520000  0.85353000  1
  O  O117  1  0.65224000  0.97783000  0.81709000  1
  O  O118  1  0.84776000  0.18291000  0.02217000  1
  O  O119  1  0.85917000  0.14647000  0.20480000  1
  O  O120  1  0.87034000  0.98660000  0.09693000  1
  O  O121  1  0.87182000  0.77458000  0.92352000  1
  O  O122  1  0.87243000  0.47424000  0.60399000  1
  O  O123  1  0.87757000  0.97424000  0.89601000  1
  O  O124  1  0.87818000  0.27458000  0.57648000  1
  O  O125  1  0.87966000  0.48660000  0.40307000  1
  O  O126  1  0.89083000  0.64647000  0.29520000  1
  O  O127  1  0.90224000  0.68291000  0.47783000  1
