# generated using pymatgen
data_CuH6(C3O)4
_symmetry_space_group_name_H-M   'P 1'
_cell_length_a   6.99940000
_cell_length_b   20.53900000
_cell_length_c   20.53900000
_cell_angle_alpha   90.00000000
_cell_angle_beta   90.00000000
_cell_angle_gamma   90.00000000
_symmetry_Int_Tables_number   1
_chemical_formula_structural   CuH6(C3O)4
_chemical_formula_sum   'Cu8 H48 C96 O32'
_cell_volume   2952.70053669
_cell_formula_units_Z   8
loop_
 _symmetry_equiv_pos_site_id
 _symmetry_equiv_pos_as_xyz
  1  'x, y, z'
loop_
 _atom_site_type_symbol
 _atom_site_label
 _atom_site_symmetry_multiplicity
 _atom_site_fract_x
 _atom_site_fract_y
 _atom_site_fract_z
 _atom_site_occupancy
  Cu  Cu0  1  0.16374000  0.52391000  0.98103000  1
  Cu  Cu1  1  0.16374000  0.97609000  0.51897000  1
  Cu  Cu2  1  0.33626000  0.51897000  0.52391000  1
  Cu  Cu3  1  0.33626000  0.98103000  0.97609000  1
  Cu  Cu4  1  0.66374000  0.01897000  0.02391000  1
  Cu  Cu5  1  0.66374000  0.48103000  0.47609000  1
  Cu  Cu6  1  0.83626000  0.02391000  0.48103000  1
  Cu  Cu7  1  0.83626000  0.47609000  0.01897000  1
  H  H8  1  0.02440000  0.71810000  0.97180000  1
  H  H9  1  0.02440000  0.78190000  0.52820000  1
  H  H10  1  0.04350000  0.59300000  0.38670000  1
  H  H11  1  0.04350000  0.90700000  0.11330000  1
  H  H12  1  0.06720000  0.17170000  0.02800000  1
  H  H13  1  0.06720000  0.32830000  0.47200000  1
  H  H14  1  0.15100000  0.07910000  0.66870000  1
  H  H15  1  0.15100000  0.42090000  0.83130000  1
  H  H16  1  0.17410000  0.74230000  0.36060000  1
  H  H17  1  0.17410000  0.75770000  0.13940000  1
  H  H18  1  0.22720000  0.14600000  0.85180000  1
  H  H19  1  0.22720000  0.35400000  0.64820000  1
  H  H20  1  0.27280000  0.64820000  0.14600000  1
  H  H21  1  0.27280000  0.85180000  0.35400000  1
  H  H22  1  0.32590000  0.13940000  0.74230000  1
  H  H23  1  0.32590000  0.36060000  0.75770000  1
  H  H24  1  0.34900000  0.66870000  0.42090000  1
  H  H25  1  0.34900000  0.83130000  0.07910000  1
  H  H26  1  0.43280000  0.02800000  0.32830000  1
  H  H27  1  0.43280000  0.47200000  0.17170000  1
  H  H28  1  0.45650000  0.11330000  0.59300000  1
  H  H29  1  0.45650000  0.38670000  0.90700000  1
  H  H30  1  0.47560000  0.52820000  0.71810000  1
  H  H31  1  0.47560000  0.97180000  0.78190000  1
  H  H32  1  0.52440000  0.02820000  0.21810000  1
  H  H33  1  0.52440000  0.47180000  0.28190000  1
  H  H34  1  0.54350000  0.61330000  0.09300000  1
  H  H35  1  0.54350000  0.88670000  0.40700000  1
  H  H36  1  0.56720000  0.52800000  0.82830000  1
  H  H37  1  0.56720000  0.97200000  0.67170000  1
  H  H38  1  0.65100000  0.16870000  0.92090000  1
  H  H39  1  0.65100000  0.33130000  0.57910000  1
  H  H40  1  0.67410000  0.63940000  0.24230000  1
  H  H41  1  0.67410000  0.86060000  0.25770000  1
  H  H42  1  0.72720000  0.14820000  0.64600000  1
  H  H43  1  0.72720000  0.35180000  0.85400000  1
  H  H44  1  0.77280000  0.64600000  0.35180000  1
  H  H45  1  0.77280000  0.85400000  0.14820000  1
  H  H46  1  0.82590000  0.24230000  0.86060000  1
  H  H47  1  0.82590000  0.25770000  0.63940000  1
  H  H48  1  0.84900000  0.57910000  0.16870000  1
  H  H49  1  0.84900000  0.92090000  0.33130000  1
  H  H50  1  0.93280000  0.67170000  0.52800000  1
  H  H51  1  0.93280000  0.82830000  0.97200000  1
  H  H52  1  0.95650000  0.09300000  0.88670000  1
  H  H53  1  0.95650000  0.40700000  0.61330000  1
  H  H54  1  0.97560000  0.21810000  0.47180000  1
  H  H55  1  0.97560000  0.28190000  0.02820000  1
  C  C56  1  0.00650000  0.58979000  0.34228000  1
  C  C57  1  0.00650000  0.91021000  0.15772000  1
  C  C58  1  0.06010000  0.54902000  0.23202000  1
  C  C59  1  0.06010000  0.95098000  0.26798000  1
  C  C60  1  0.09350000  0.23034000  0.49116000  1
  C  C61  1  0.09350000  0.26966000  0.00884000  1
  C  C62  1  0.10960000  0.08191000  0.71264000  1
  C  C63  1  0.10960000  0.41809000  0.78736000  1
  C  C64  1  0.11690000  0.50810000  0.11619000  1
  C  C65  1  0.11690000  0.99190000  0.38381000  1
  C  C66  1  0.12000000  0.55233000  0.29879000  1
  C  C67  1  0.12000000  0.94767000  0.20121000  1
  C  C68  1  0.13480000  0.11429000  0.51263000  1
  C  C69  1  0.13480000  0.38571000  0.98737000  1
  C  C70  1  0.14930000  0.20372000  0.00976000  1
  C  C71  1  0.14930000  0.29628000  0.49024000  1
  C  C72  1  0.15430000  0.12122000  0.82169000  1
  C  C73  1  0.15430000  0.37878000  0.67831000  1
  C  C74  1  0.17760000  0.51568000  0.18600000  1
  C  C75  1  0.17760000  0.98432000  0.31400000  1
  C  C76  1  0.20610000  0.18323000  0.51958000  1
  C  C77  1  0.20610000  0.31677000  0.98042000  1
  C  C78  1  0.21370000  0.11735000  0.75610000  1
  C  C79  1  0.21370000  0.38265000  0.74390000  1
  C  C80  1  0.28630000  0.74390000  0.11735000  1
  C  C81  1  0.28630000  0.75610000  0.38265000  1
  C  C82  1  0.29390000  0.51958000  0.31677000  1
  C  C83  1  0.29390000  0.98042000  0.18323000  1
  C  C84  1  0.32240000  0.18600000  0.98432000  1
  C  C85  1  0.32240000  0.31400000  0.51568000  1
  C  C86  1  0.34570000  0.67831000  0.12122000  1
  C  C87  1  0.34570000  0.82169000  0.37878000  1
  C  C88  1  0.35070000  0.00976000  0.29628000  1
  C  C89  1  0.35070000  0.49024000  0.20372000  1
  C  C90  1  0.36520000  0.51263000  0.38571000  1
  C  C91  1  0.36520000  0.98737000  0.11429000  1
  C  C92  1  0.38000000  0.20121000  0.55233000  1
  C  C93  1  0.38000000  0.29879000  0.94767000  1
  C  C94  1  0.38310000  0.11619000  0.99190000  1
  C  C95  1  0.38310000  0.38381000  0.50810000  1
  C  C96  1  0.39040000  0.71264000  0.41809000  1
  C  C97  1  0.39040000  0.78736000  0.08191000  1
  C  C98  1  0.40650000  0.00884000  0.23034000  1
  C  C99  1  0.40650000  0.49116000  0.26966000  1
  C  C100  1  0.43990000  0.23202000  0.95098000  1
  C  C101  1  0.43990000  0.26798000  0.54902000  1
  C  C102  1  0.49350000  0.15772000  0.58979000  1
  C  C103  1  0.49350000  0.34228000  0.91021000  1
  C  C104  1  0.50650000  0.65772000  0.08979000  1
  C  C105  1  0.50650000  0.84228000  0.41021000  1
  C  C106  1  0.56010000  0.73202000  0.45098000  1
  C  C107  1  0.56010000  0.76798000  0.04902000  1
  C  C108  1  0.59350000  0.50884000  0.73034000  1
  C  C109  1  0.59350000  0.99116000  0.76966000  1
  C  C110  1  0.60960000  0.21264000  0.91809000  1
  C  C111  1  0.60960000  0.28736000  0.58191000  1
  C  C112  1  0.61690000  0.61619000  0.49190000  1
  C  C113  1  0.61690000  0.88381000  0.00810000  1
  C  C114  1  0.62000000  0.70121000  0.05233000  1
  C  C115  1  0.62000000  0.79879000  0.44767000  1
  C  C116  1  0.63480000  0.01263000  0.88571000  1
  C  C117  1  0.63480000  0.48737000  0.61429000  1
  C  C118  1  0.64930000  0.50976000  0.79628000  1
  C  C119  1  0.64930000  0.99024000  0.70372000  1
  C  C120  1  0.65430000  0.17831000  0.62122000  1
  C  C121  1  0.65430000  0.32169000  0.87878000  1
  C  C122  1  0.67760000  0.68600000  0.48432000  1
  C  C123  1  0.67760000  0.81400000  0.01568000  1
  C  C124  1  0.70610000  0.01958000  0.81677000  1
  C  C125  1  0.70610000  0.48042000  0.68323000  1
  C  C126  1  0.71370000  0.24390000  0.61735000  1
  C  C127  1  0.71370000  0.25610000  0.88265000  1
  C  C128  1  0.78630000  0.61735000  0.25610000  1
  C  C129  1  0.78630000  0.88265000  0.24390000  1
  C  C130  1  0.79390000  0.68323000  0.01958000  1
  C  C131  1  0.79390000  0.81677000  0.48042000  1
  C  C132  1  0.82240000  0.01568000  0.68600000  1
  C  C133  1  0.82240000  0.48432000  0.81400000  1
  C  C134  1  0.84570000  0.62122000  0.32169000  1
  C  C135  1  0.84570000  0.87878000  0.17831000  1
  C  C136  1  0.85070000  0.70372000  0.50976000  1
  C  C137  1  0.85070000  0.79628000  0.99024000  1
  C  C138  1  0.86520000  0.61429000  0.01263000  1
  C  C139  1  0.86520000  0.88571000  0.48737000  1
  C  C140  1  0.88000000  0.05233000  0.79879000  1
  C  C141  1  0.88000000  0.44767000  0.70121000  1
  C  C142  1  0.88310000  0.00810000  0.61619000  1
  C  C143  1  0.88310000  0.49190000  0.88381000  1
  C  C144  1  0.89040000  0.58191000  0.21264000  1
  C  C145  1  0.89040000  0.91809000  0.28736000  1
  C  C146  1  0.90650000  0.73034000  0.99116000  1
  C  C147  1  0.90650000  0.76966000  0.50884000  1
  C  C148  1  0.93990000  0.04902000  0.73202000  1
  C  C149  1  0.93990000  0.45098000  0.76798000  1
  C  C150  1  0.99350000  0.08979000  0.84228000  1
  C  C151  1  0.99350000  0.41021000  0.65772000  1
  O  O152  1  0.03470000  0.60741000  0.99463000  1
  O  O153  1  0.03470000  0.89259000  0.50537000  1
  O  O154  1  0.04840000  0.51488000  0.89410000  1
  O  O155  1  0.04840000  0.98512000  0.60590000  1
  O  O156  1  0.23450000  0.52481000  0.07344000  1
  O  O157  1  0.23450000  0.97519000  0.42656000  1
  O  O158  1  0.24920000  0.06749000  0.52382000  1
  O  O159  1  0.24920000  0.43251000  0.97618000  1
  O  O160  1  0.25080000  0.52382000  0.43251000  1
  O  O161  1  0.25080000  0.97618000  0.06749000  1
  O  O162  1  0.26550000  0.07344000  0.97519000  1
  O  O163  1  0.26550000  0.42656000  0.52481000  1
  O  O164  1  0.45160000  0.60590000  0.51488000  1
  O  O165  1  0.45160000  0.89410000  0.98512000  1
  O  O166  1  0.46530000  0.50537000  0.60741000  1
  O  O167  1  0.46530000  0.99463000  0.89259000  1
  O  O168  1  0.53470000  0.00537000  0.10741000  1
  O  O169  1  0.53470000  0.49463000  0.39259000  1
  O  O170  1  0.54840000  0.10590000  0.01488000  1
  O  O171  1  0.54840000  0.39410000  0.48512000  1
  O  O172  1  0.73450000  0.57344000  0.47519000  1
  O  O173  1  0.73450000  0.92656000  0.02481000  1
  O  O174  1  0.74920000  0.02382000  0.93251000  1
  O  O175  1  0.74920000  0.47618000  0.56749000  1
  O  O176  1  0.75080000  0.56749000  0.02382000  1
  O  O177  1  0.75080000  0.93251000  0.47618000  1
  O  O178  1  0.76550000  0.02481000  0.57344000  1
  O  O179  1  0.76550000  0.47519000  0.92656000  1
  O  O180  1  0.95160000  0.01488000  0.39410000  1
  O  O181  1  0.95160000  0.48512000  0.10590000  1
  O  O182  1  0.96530000  0.10741000  0.49463000  1
  O  O183  1  0.96530000  0.39259000  0.00537000  1
