# generated using pymatgen
data_TbH6C14(NO4)2
_symmetry_space_group_name_H-M   'P 1'
_cell_length_a   6.72200000
_cell_length_b   14.23900000
_cell_length_c   22.88000000
_cell_angle_alpha   90.00000000
_cell_angle_beta   90.00000000
_cell_angle_gamma   90.00000000
_symmetry_Int_Tables_number   1
_chemical_formula_structural   TbH6C14(NO4)2
_chemical_formula_sum   'Tb4 H24 C56 N8 O32'
_cell_volume   2189.94908704
_cell_formula_units_Z   4
loop_
 _symmetry_equiv_pos_site_id
 _symmetry_equiv_pos_as_xyz
  1  'x, y, z'
loop_
 _atom_site_type_symbol
 _atom_site_label
 _atom_site_symmetry_multiplicity
 _atom_site_fract_x
 _atom_site_fract_y
 _atom_site_fract_z
 _atom_site_occupancy
  Tb  Tb0  1  0.25000000  0.04757000  0.35956000  1
  Tb  Tb1  1  0.25000000  0.54757000  0.14044000  1
  Tb  Tb2  1  0.75000000  0.45243000  0.85956000  1
  Tb  Tb3  1  0.75000000  0.95243000  0.64044000  1
  H  H4  1  0.25000000  0.01270000  0.20530000  1
  H  H5  1  0.25000000  0.09260000  0.11840000  1
  H  H6  1  0.25000000  0.13780000  0.62880000  1
  H  H7  1  0.25000000  0.23080000  0.46460000  1
  H  H8  1  0.25000000  0.25210000  0.11690000  1
  H  H9  1  0.25000000  0.26120000  0.56260000  1
  H  H10  1  0.25000000  0.51270000  0.29470000  1
  H  H11  1  0.25000000  0.59260000  0.38160000  1
  H  H12  1  0.25000000  0.63780000  0.87120000  1
  H  H13  1  0.25000000  0.73080000  0.03540000  1
  H  H14  1  0.25000000  0.75210000  0.38310000  1
  H  H15  1  0.25000000  0.76120000  0.93740000  1
  H  H16  1  0.75000000  0.23880000  0.06260000  1
  H  H17  1  0.75000000  0.24790000  0.61690000  1
  H  H18  1  0.75000000  0.26920000  0.96460000  1
  H  H19  1  0.75000000  0.36220000  0.12880000  1
  H  H20  1  0.75000000  0.40740000  0.61840000  1
  H  H21  1  0.75000000  0.48730000  0.70530000  1
  H  H22  1  0.75000000  0.73880000  0.43740000  1
  H  H23  1  0.75000000  0.74790000  0.88310000  1
  H  H24  1  0.75000000  0.76920000  0.53540000  1
  H  H25  1  0.75000000  0.86220000  0.37120000  1
  H  H26  1  0.75000000  0.90740000  0.88160000  1
  H  H27  1  0.75000000  0.98730000  0.79470000  1
  C  C28  1  0.25000000  0.02040000  0.50660000  1
  C  C29  1  0.25000000  0.03350000  0.56750000  1
  C  C30  1  0.25000000  0.07800000  0.20570000  1
  C  C31  1  0.25000000  0.12590000  0.15330000  1
  C  C32  1  0.25000000  0.12610000  0.58880000  1
  C  C33  1  0.25000000  0.18050000  0.49050000  1
  C  C34  1  0.25000000  0.19940000  0.54940000  1
  C  C35  1  0.25000000  0.21920000  0.25740000  1
  C  C36  1  0.25000000  0.22000000  0.15230000  1
  C  C37  1  0.25000000  0.26530000  0.31630000  1
  C  C38  1  0.25000000  0.26980000  0.20530000  1
  C  C39  1  0.25000000  0.37680000  0.20280000  1
  C  C40  1  0.25000000  0.42350000  0.02060000  1
  C  C41  1  0.25000000  0.45450000  0.88880000  1
  C  C42  1  0.25000000  0.52040000  0.99340000  1
  C  C43  1  0.25000000  0.53350000  0.93250000  1
  C  C44  1  0.25000000  0.57800000  0.29430000  1
  C  C45  1  0.25000000  0.62590000  0.34670000  1
  C  C46  1  0.25000000  0.62610000  0.91120000  1
  C  C47  1  0.25000000  0.68050000  0.00950000  1
  C  C48  1  0.25000000  0.69940000  0.95060000  1
  C  C49  1  0.25000000  0.71920000  0.24260000  1
  C  C50  1  0.25000000  0.72000000  0.34770000  1
  C  C51  1  0.25000000  0.76530000  0.18370000  1
  C  C52  1  0.25000000  0.76980000  0.29470000  1
  C  C53  1  0.25000000  0.87680000  0.29720000  1
  C  C54  1  0.25000000  0.92350000  0.47940000  1
  C  C55  1  0.25000000  0.95450000  0.61120000  1
  C  C56  1  0.75000000  0.04550000  0.38880000  1
  C  C57  1  0.75000000  0.07650000  0.52060000  1
  C  C58  1  0.75000000  0.12320000  0.70280000  1
  C  C59  1  0.75000000  0.23020000  0.70530000  1
  C  C60  1  0.75000000  0.23470000  0.81630000  1
  C  C61  1  0.75000000  0.28000000  0.65230000  1
  C  C62  1  0.75000000  0.28080000  0.75740000  1
  C  C63  1  0.75000000  0.30060000  0.04940000  1
  C  C64  1  0.75000000  0.31950000  0.99050000  1
  C  C65  1  0.75000000  0.37390000  0.08880000  1
  C  C66  1  0.75000000  0.37410000  0.65330000  1
  C  C67  1  0.75000000  0.42200000  0.70570000  1
  C  C68  1  0.75000000  0.46650000  0.06750000  1
  C  C69  1  0.75000000  0.47960000  0.00660000  1
  C  C70  1  0.75000000  0.54550000  0.11120000  1
  C  C71  1  0.75000000  0.57650000  0.97940000  1
  C  C72  1  0.75000000  0.62320000  0.79720000  1
  C  C73  1  0.75000000  0.73020000  0.79470000  1
  C  C74  1  0.75000000  0.73470000  0.68370000  1
  C  C75  1  0.75000000  0.78000000  0.84770000  1
  C  C76  1  0.75000000  0.78080000  0.74260000  1
  C  C77  1  0.75000000  0.80060000  0.45060000  1
  C  C78  1  0.75000000  0.81950000  0.50950000  1
  C  C79  1  0.75000000  0.87390000  0.41120000  1
  C  C80  1  0.75000000  0.87410000  0.84670000  1
  C  C81  1  0.75000000  0.92200000  0.79430000  1
  C  C82  1  0.75000000  0.96650000  0.43250000  1
  C  C83  1  0.75000000  0.97960000  0.49340000  1
  N  N84  1  0.25000000  0.09340000  0.46870000  1
  N  N85  1  0.25000000  0.12430000  0.25870000  1
  N  N86  1  0.25000000  0.59340000  0.03130000  1
  N  N87  1  0.25000000  0.62430000  0.24130000  1
  N  N88  1  0.75000000  0.37570000  0.75870000  1
  N  N89  1  0.75000000  0.40660000  0.96870000  1
  N  N90  1  0.75000000  0.87570000  0.74130000  1
  N  N91  1  0.75000000  0.90660000  0.53130000  1
  O  O92  1  0.08450000  0.42450000  0.87073000  1
  O  O93  1  0.08450000  0.92450000  0.62927000  1
  O  O94  1  0.08700000  0.41980000  0.19661000  1
  O  O95  1  0.08700000  0.91980000  0.30339000  1
  O  O96  1  0.25000000  0.21120000  0.35980000  1
  O  O97  1  0.25000000  0.35290000  0.31900000  1
  O  O98  1  0.25000000  0.35480000  0.98700000  1
  O  O99  1  0.25000000  0.42210000  0.07670000  1
  O  O100  1  0.25000000  0.71120000  0.14020000  1
  O  O101  1  0.25000000  0.85290000  0.18100000  1
  O  O102  1  0.25000000  0.85480000  0.51300000  1
  O  O103  1  0.25000000  0.92210000  0.42330000  1
  O  O104  1  0.41300000  0.41980000  0.19661000  1
  O  O105  1  0.41300000  0.91980000  0.30339000  1
  O  O106  1  0.41550000  0.42450000  0.87073000  1
  O  O107  1  0.41550000  0.92450000  0.62927000  1
  O  O108  1  0.58450000  0.07550000  0.37073000  1
  O  O109  1  0.58450000  0.57550000  0.12927000  1
  O  O110  1  0.58700000  0.08020000  0.69661000  1
  O  O111  1  0.58700000  0.58020000  0.80339000  1
  O  O112  1  0.75000000  0.07790000  0.57670000  1
  O  O113  1  0.75000000  0.14520000  0.48700000  1
  O  O114  1  0.75000000  0.14710000  0.81900000  1
  O  O115  1  0.75000000  0.28880000  0.85980000  1
  O  O116  1  0.75000000  0.57790000  0.92330000  1
  O  O117  1  0.75000000  0.64520000  0.01300000  1
  O  O118  1  0.75000000  0.64710000  0.68100000  1
  O  O119  1  0.75000000  0.78880000  0.64020000  1
  O  O120  1  0.91300000  0.08020000  0.69661000  1
  O  O121  1  0.91300000  0.58020000  0.80339000  1
  O  O122  1  0.91550000  0.07550000  0.37073000  1
  O  O123  1  0.91550000  0.57550000  0.12927000  1
